
     RDKit          3D

 37 41  0  0  0  0  0  0  0  0999 V2000
  174.3270  163.1884  111.6719 C   0  0  1  0  0  0  0  0  0  0  0  0
  174.3631  164.6503  112.0708 C   0  0  0  0  0  0  0  0  0  0  0  0
  173.6342  164.7262  113.4225 C   0  0  0  0  0  0  0  0  0  0  0  0
  173.9194  163.3878  113.9632 C   0  0  1  0  0  0  0  0  0  0  0  0
  173.0531  162.9161  115.0921 C   0  0  2  0  0  0  0  0  0  0  0  0
  172.8886  163.8870  116.1963 C   0  0  0  0  0  0  0  0  0  0  0  0
  173.4291  163.5343  117.5206 C   0  0  0  0  0  0  0  0  0  0  0  0
  173.5649  162.0792  117.8407 C   0  0  1  0  0  0  0  0  0  0  0  0
  173.0068  161.7151  119.1151 N   0  0  0  0  0  0  0  0  0  0  0  0
  173.2605  160.3535  119.5060 C   0  0  0  0  0  0  0  0  0  0  0  0
  173.3668  160.0182  120.7029 O   0  0  0  0  0  0  0  0  0  0  0  0
  173.3777  159.4200  118.4007 C   0  0  0  0  0  0  0  0  0  0  0  0
  173.2586  159.7749  117.1439 C   0  0  0  0  0  0  0  0  0  0  0  0
  172.9888  161.1724  116.7860 C   0  0  1  0  0  0  0  0  0  0  0  0
  171.4707  161.3067  116.7191 C   0  0  0  0  0  0  0  0  0  0  0  0
  173.6355  161.5776  115.4928 C   0  0  1  0  0  0  0  0  0  0  0  0
  173.5308  160.5911  114.3884 C   0  0  0  0  0  0  0  0  0  0  0  0
  174.1231  161.1385  113.1148 C   0  0  0  0  0  0  0  0  0  0  0  0
  173.5780  162.4823  112.7686 C   0  0  2  0  0  0  0  0  0  0  0  0
  172.1126  162.4064  112.5197 C   0  0  0  0  0  0  0  0  0  0  0  0
  173.6767  163.0890  110.3447 C   0  0  0  0  0  0  0  0  0  0  0  0
  172.7547  162.2500  110.1818 O   0  0  0  0  0  0  0  0  0  0  0  0
  174.0076  163.8706  109.2209 N   0  0  0  0  0  0  0  0  0  0  0  0
  175.1282  164.7645  109.1727 C   0  0  0  0  0  0  0  0  0  0  0  0
  175.2190  165.8588  110.0054 C   0  0  0  0  0  0  0  0  0  0  0  0
  176.3083  166.6978  109.9301 C   0  0  0  0  0  0  0  0  0  0  0  0
  177.2964  166.4181  109.0097 C   0  0  0  0  0  0  0  0  0  0  0  0
  177.2115  165.3253  108.1740 C   0  0  0  0  0  0  0  0  0  0  0  0
  176.1095  164.4741  108.2481 C   0  0  0  0  0  0  0  0  0  0  0  0
  176.0006  163.2894  107.3502 C   0  0  0  0  0  0  0  0  0  0  0  0
  175.4881  162.1836  108.0345 F   0  0  0  0  0  0  0  0  0  0  0  0
  175.0351  163.5815  106.3787 F   0  0  0  0  0  0  0  0  0  0  0  0
  177.1615  162.9876  106.6975 F   0  0  0  0  0  0  0  0  0  0  0  0
  176.4409  167.8976  110.8198 C   0  0  0  0  0  0  0  0  0  0  0  0
  175.3630  168.0040  111.6841 F   0  0  0  0  0  0  0  0  0  0  0  0
  177.6467  167.8572  111.4921 F   0  0  0  0  0  0  0  0  0  0  0  0
  176.4406  169.0355  110.0371 F   0  0  0  0  0  0  0  0  0  0  0  0
  1  2  1  0
  2  3  1  0
  4  3  1  6
  4  5  1  0
  5  6  1  1
  6  7  1  0
  8  7  1  6
  8  9  1  0
  9 10  1  0
 10 11  2  0
 10 12  1  0
 12 13  2  0
 13 14  1  0
 14 15  1  6
 14 16  1  0
 16 17  1  6
 17 18  1  0
 18 19  1  0
 19 20  1  6
  1 21  1  6
 21 22  2  0
 21 23  1  0
 23 24  1  0
 24 25  2  0
 25 26  1  0
 26 27  2  0
 27 28  1  0
 28 29  2  0
 29 30  1  0
 30 31  1  0
 30 32  1  0
 30 33  1  0
 26 34  1  0
 34 35  1  0
 34 36  1  0
 34 37  1  0
 19  1  1  0
 29 24  1  0
 19  4  1  0
 16  5  1  0
 14  8  1  0
M  END
$$$$
