
     RDKit          3D

 37 41  0  0  0  0  0  0  0  0999 V2000
  110.4325  168.1824  140.9964 C   0  0  1  0  0  0  0  0  0  0  0  0
  110.0578  167.2011  139.9036 C   0  0  0  0  0  0  0  0  0  0  0  0
  111.3621  166.4729  139.5393 C   0  0  0  0  0  0  0  0  0  0  0  0
  112.0775  166.5330  140.8237 C   0  0  1  0  0  0  0  0  0  0  0  0
  113.5556  166.2857  140.7864 C   0  0  2  0  0  0  0  0  0  0  0  0
  113.9649  165.0810  140.0315 C   0  0  0  0  0  0  0  0  0  0  0  0
  114.6065  163.9800  140.7707 C   0  0  0  0  0  0  0  0  0  0  0  0
  115.3262  164.3302  142.0346 C   0  0  1  0  0  0  0  0  0  0  0  0
  116.6529  163.7807  142.1134 N   0  0  0  0  0  0  0  0  0  0  0  0
  117.3026  163.9801  143.3819 C   0  0  0  0  0  0  0  0  0  0  0  0
  118.1372  163.1693  143.8319 O   0  0  0  0  0  0  0  0  0  0  0  0
  116.9078  165.1907  144.0787 C   0  0  0  0  0  0  0  0  0  0  0  0
  116.0351  166.0442  143.5994 C   0  0  0  0  0  0  0  0  0  0  0  0
  115.4020  165.8109  142.2961 C   0  0  1  0  0  0  0  0  0  0  0  0
  116.2877  166.5037  141.2652 C   0  0  0  0  0  0  0  0  0  0  0  0
  113.9889  166.3152  142.2365 C   0  0  1  0  0  0  0  0  0  0  0  0
  113.7605  167.6517  142.8410 C   0  0  0  0  0  0  0  0  0  0  0  0
  112.3362  168.1019  142.6382 C   0  0  0  0  0  0  0  0  0  0  0  0
  111.9112  168.0113  141.2120 C   0  0  2  0  0  0  0  0  0  0  0  0
  112.7337  168.9133  140.3606 C   0  0  0  0  0  0  0  0  0  0  0  0
  110.0477  169.5406  140.5477 C   0  0  0  0  0  0  0  0  0  0  0  0
  110.0659  169.8017  139.3180 O   0  0  0  0  0  0  0  0  0  0  0  0
  109.6529  170.5920  141.3975 N   0  0  0  0  0  0  0  0  0  0  0  0
  108.3164  171.1089  141.4594 C   0  0  0  0  0  0  0  0  0  0  0  0
  107.6216  171.4600  140.3223 C   0  0  0  0  0  0  0  0  0  0  0  0
  106.3405  171.9557  140.4189 C   0  0  0  0  0  0  0  0  0  0  0  0
  105.7760  172.0906  141.6699 C   0  0  0  0  0  0  0  0  0  0  0  0
  106.4657  171.7413  142.8110 C   0  0  0  0  0  0  0  0  0  0  0  0
  107.7631  171.2391  142.7160 C   0  0  0  0  0  0  0  0  0  0  0  0
  108.5240  170.8590  143.9400 C   0  0  0  0  0  0  0  0  0  0  0  0
  109.5532  171.7694  144.1967 F   0  0  0  0  0  0  0  0  0  0  0  0
  107.6587  170.9875  145.0336 F   0  0  0  0  0  0  0  0  0  0  0  0
  108.9786  169.5715  143.9252 F   0  0  0  0  0  0  0  0  0  0  0  0
  105.5544  172.3479  139.2038 C   0  0  0  0  0  0  0  0  0  0  0  0
  105.4443  171.2915  138.3137 F   0  0  0  0  0  0  0  0  0  0  0  0
  104.3215  172.8454  139.5780 F   0  0  0  0  0  0  0  0  0  0  0  0
  106.2266  173.3586  138.5448 F   0  0  0  0  0  0  0  0  0  0  0  0
  1  2  1  0
  2  3  1  0
  4  3  1  6
  4  5  1  0
  5  6  1  1
  6  7  1  0
  8  7  1  6
  8  9  1  0
  9 10  1  0
 10 11  2  0
 10 12  1  0
 12 13  2  0
 13 14  1  0
 14 15  1  6
 14 16  1  0
 16 17  1  6
 17 18  1  0
 18 19  1  0
 19 20  1  6
  1 21  1  6
 21 22  2  0
 21 23  1  0
 23 24  1  0
 24 25  2  0
 25 26  1  0
 26 27  2  0
 27 28  1  0
 28 29  2  0
 29 30  1  0
 30 31  1  0
 30 32  1  0
 30 33  1  0
 26 34  1  0
 34 35  1  0
 34 36  1  0
 34 37  1  0
 19  1  1  0
 29 24  1  0
 19  4  1  0
 16  5  1  0
 14  8  1  0
M  END
$$$$
