
     RDKit          3D

 37 41  0  0  0  0  0  0  0  0999 V2000
  187.0286  162.2921  139.7174 C   0  0  1  0  0  0  0  0  0  0  0  0
  187.0278  163.7390  139.2657 C   0  0  0  0  0  0  0  0  0  0  0  0
  185.8085  164.3821  139.9469 C   0  0  0  0  0  0  0  0  0  0  0  0
  185.7157  163.5674  141.1686 C   0  0  1  0  0  0  0  0  0  0  0  0
  184.4157  163.6125  141.9140 C   0  0  2  0  0  0  0  0  0  0  0  0
  183.8922  164.9727  142.1680 C   0  0  0  0  0  0  0  0  0  0  0  0
  183.7910  165.4309  143.5644 C   0  0  0  0  0  0  0  0  0  0  0  0
  183.6453  164.3824  144.6215 C   0  0  1  0  0  0  0  0  0  0  0  0
  182.5723  164.6393  145.5439 N   0  0  0  0  0  0  0  0  0  0  0  0
  182.5119  163.7239  146.6527 C   0  0  0  0  0  0  0  0  0  0  0  0
  182.0739  164.0661  147.7695 O   0  0  0  0  0  0  0  0  0  0  0  0
  182.9967  162.3875  146.3593 C   0  0  0  0  0  0  0  0  0  0  0  0
  183.4501  162.0293  145.1821 C   0  0  0  0  0  0  0  0  0  0  0  0
  183.4855  162.9896  144.0728 C   0  0  1  0  0  0  0  0  0  0  0  0
  182.1556  162.8396  143.3406 C   0  0  0  0  0  0  0  0  0  0  0  0
  184.6501  162.7712  143.1504 C   0  0  1  0  0  0  0  0  0  0  0  0
  184.9293  161.3569  142.7960 C   0  0  0  0  0  0  0  0  0  0  0  0
  186.0496  161.2608  141.7921 C   0  0  0  0  0  0  0  0  0  0  0  0
  185.8266  162.1399  140.6087 C   0  0  2  0  0  0  0  0  0  0  0  0
  184.6015  161.7271  139.8713 C   0  0  0  0  0  0  0  0  0  0  0  0
  186.9905  161.4329  138.5114 C   0  0  0  0  0  0  0  0  0  0  0  0
  187.1184  160.1896  138.6475 O   0  0  0  0  0  0  0  0  0  0  0  0
  186.8190  161.8966  137.1927 N   0  0  0  0  0  0  0  0  0  0  0  0
  187.7689  161.6784  136.1405 C   0  0  0  0  0  0  0  0  0  0  0  0
  188.9841  162.3279  136.1146 C   0  0  0  0  0  0  0  0  0  0  0  0
  189.8713  162.0963  135.0873 C   0  0  0  0  0  0  0  0  0  0  0  0
  189.5167  161.2070  134.0948 C   0  0  0  0  0  0  0  0  0  0  0  0
  188.3029  160.5544  134.1148 C   0  0  0  0  0  0  0  0  0  0  0  0
  187.4025  160.7869  135.1539 C   0  0  0  0  0  0  0  0  0  0  0  0
  186.0847  160.0916  135.1895 C   0  0  0  0  0  0  0  0  0  0  0  0
  185.0357  160.9875  134.9642 F   0  0  0  0  0  0  0  0  0  0  0  0
  186.0391  159.2140  134.0991 F   0  0  0  0  0  0  0  0  0  0  0  0
  185.8852  159.3522  136.3201 F   0  0  0  0  0  0  0  0  0  0  0  0
  191.2021  162.7846  135.0262 C   0  0  0  0  0  0  0  0  0  0  0  0
  191.0833  164.0632  134.5051 F   0  0  0  0  0  0  0  0  0  0  0  0
  191.7935  162.7829  136.2742 F   0  0  0  0  0  0  0  0  0  0  0  0
  192.0299  162.0802  134.1741 F   0  0  0  0  0  0  0  0  0  0  0  0
  1  2  1  0
  2  3  1  0
  4  3  1  6
  4  5  1  0
  5  6  1  1
  6  7  1  0
  8  7  1  6
  8  9  1  0
  9 10  1  0
 10 11  2  0
 10 12  1  0
 12 13  2  0
 13 14  1  0
 14 15  1  6
 14 16  1  0
 16 17  1  6
 17 18  1  0
 18 19  1  0
 19 20  1  6
  1 21  1  6
 21 22  2  0
 21 23  1  0
 23 24  1  0
 24 25  2  0
 25 26  1  0
 26 27  2  0
 27 28  1  0
 28 29  2  0
 29 30  1  0
 30 31  1  0
 30 32  1  0
 30 33  1  0
 26 34  1  0
 34 35  1  0
 34 36  1  0
 34 37  1  0
 19  1  1  0
 29 24  1  0
 19  4  1  0
 16  5  1  0
 14  8  1  0
M  END
$$$$
