
     RDKit          3D

 37 41  0  0  0  0  0  0  0  0999 V2000
  164.5442  148.4010  127.0308 C   0  0  1  0  0  0  0  0  0  0  0  0
  164.0743  147.0870  127.6224 C   0  0  0  0  0  0  0  0  0  0  0  0
  164.9734  146.8412  128.8453 C   0  0  0  0  0  0  0  0  0  0  0  0
  165.2843  148.2244  129.2392 C   0  0  1  0  0  0  0  0  0  0  0  0
  166.4591  148.4200  130.1498 C   0  0  2  0  0  0  0  0  0  0  0  0
  166.4795  147.5359  131.3359 C   0  0  0  0  0  0  0  0  0  0  0  0
  166.3598  148.1538  132.6678 C   0  0  0  0  0  0  0  0  0  0  0  0
  166.8067  149.5747  132.8074 C   0  0  1  0  0  0  0  0  0  0  0  0
  167.6888  149.7944  133.9217 N   0  0  0  0  0  0  0  0  0  0  0  0
  168.0083  151.1771  134.1611 C   0  0  0  0  0  0  0  0  0  0  0  0
  168.2563  151.6099  135.3046 O   0  0  0  0  0  0  0  0  0  0  0  0
  168.0178  152.0091  132.9718 C   0  0  0  0  0  0  0  0  0  0  0  0
  167.7632  151.5492  131.7704 C   0  0  0  0  0  0  0  0  0  0  0  0
  167.4521  150.1297  131.5656 C   0  0  1  0  0  0  0  0  0  0  0  0
  168.7842  149.4404  131.2870 C   0  0  0  0  0  0  0  0  0  0  0  0
  166.4708  149.9032  130.4519 C   0  0  1  0  0  0  0  0  0  0  0  0
  166.7026  150.7025  129.2225 C   0  0  0  0  0  0  0  0  0  0  0  0
  165.7251  150.3256  128.1387 C   0  0  0  0  0  0  0  0  0  0  0  0
  165.6875  148.8550  127.8963 C   0  0  2  0  0  0  0  0  0  0  0  0
  167.0103  148.3674  127.4195 C   0  0  0  0  0  0  0  0  0  0  0  0
  164.9227  148.1614  125.6188 C   0  0  0  0  0  0  0  0  0  0  0  0
  165.3080  147.0137  125.2800 O   0  0  0  0  0  0  0  0  0  0  0  0
  164.8880  149.1293  124.5964 N   0  0  0  0  0  0  0  0  0  0  0  0
  164.6245  150.5208  124.8237 C   0  0  0  0  0  0  0  0  0  0  0  0
  165.6410  151.4238  125.0481 C   0  0  0  0  0  0  0  0  0  0  0  0
  165.3514  152.7525  125.2653 C   0  0  0  0  0  0  0  0  0  0  0  0
  164.0318  153.1526  125.2528 C   0  0  0  0  0  0  0  0  0  0  0  0
  163.0106  152.2543  125.0290 C   0  0  0  0  0  0  0  0  0  0  0  0
  163.3009  150.9083  124.8087 C   0  0  0  0  0  0  0  0  0  0  0  0
  162.2086  149.9232  124.5677 C   0  0  0  0  0  0  0  0  0  0  0  0
  161.3006  150.3998  123.6179 F   0  0  0  0  0  0  0  0  0  0  0  0
  162.7815  148.7928  123.9717 F   0  0  0  0  0  0  0  0  0  0  0  0
  161.5798  149.5120  125.7079 F   0  0  0  0  0  0  0  0  0  0  0  0
  166.4310  153.7632  125.5128 C   0  0  0  0  0  0  0  0  0  0  0  0
  166.7977  153.7900  126.8489 F   0  0  0  0  0  0  0  0  0  0  0  0
  167.5067  153.5200  124.6815 F   0  0  0  0  0  0  0  0  0  0  0  0
  165.9452  155.0191  125.2055 F   0  0  0  0  0  0  0  0  0  0  0  0
  1  2  1  0
  2  3  1  0
  4  3  1  6
  4  5  1  0
  5  6  1  1
  6  7  1  0
  8  7  1  6
  8  9  1  0
  9 10  1  0
 10 11  2  0
 10 12  1  0
 12 13  2  0
 13 14  1  0
 14 15  1  6
 14 16  1  0
 16 17  1  6
 17 18  1  0
 18 19  1  0
 19 20  1  6
  1 21  1  6
 21 22  2  0
 21 23  1  0
 23 24  1  0
 24 25  2  0
 25 26  1  0
 26 27  2  0
 27 28  1  0
 28 29  2  0
 29 30  1  0
 30 31  1  0
 30 32  1  0
 30 33  1  0
 26 34  1  0
 34 35  1  0
 34 36  1  0
 34 37  1  0
 19  1  1  0
 29 24  1  0
 19  4  1  0
 16  5  1  0
 14  8  1  0
M  END
$$$$
