
     RDKit          3D

 37 41  0  0  0  0  0  0  0  0999 V2000
  148.3272  166.7904  131.2426 C   0  0  1  0  0  0  0  0  0  0  0  0
  148.7070  167.3386  129.8814 C   0  0  0  0  0  0  0  0  0  0  0  0
  147.5649  168.2899  129.4875 C   0  0  0  0  0  0  0  0  0  0  0  0
  147.1129  168.7392  130.8138 C   0  0  1  0  0  0  0  0  0  0  0  0
  145.7545  169.3692  130.8873 C   0  0  2  0  0  0  0  0  0  0  0  0
  145.5033  170.4230  129.8797 C   0  0  0  0  0  0  0  0  0  0  0  0
  145.2902  171.8021  130.3519 C   0  0  0  0  0  0  0  0  0  0  0  0
  144.7621  171.9776  131.7406 C   0  0  1  0  0  0  0  0  0  0  0  0
  143.6410  172.8748  131.8215 N   0  0  0  0  0  0  0  0  0  0  0  0
  143.2158  173.1725  133.1638 C   0  0  0  0  0  0  0  0  0  0  0  0
  142.6958  174.2656  133.4655 O   0  0  0  0  0  0  0  0  0  0  0  0
  143.4408  172.1033  134.1194 C   0  0  0  0  0  0  0  0  0  0  0  0
  143.9816  170.9529  133.7972 C   0  0  0  0  0  0  0  0  0  0  0  0
  144.3923  170.6830  132.4144 C   0  0  1  0  0  0  0  0  0  0  0  0
  143.1897  170.0365  131.7341 C   0  0  0  0  0  0  0  0  0  0  0  0
  145.6100  169.8086  132.3286 C   0  0  1  0  0  0  0  0  0  0  0  0
  145.6293  168.6461  133.2517 C   0  0  0  0  0  0  0  0  0  0  0  0
  146.8430  167.7847  133.0131 C   0  0  0  0  0  0  0  0  0  0  0  0
  146.9986  167.4102  131.5783 C   0  0  2  0  0  0  0  0  0  0  0  0
  145.8412  166.5944  131.1202 C   0  0  0  0  0  0  0  0  0  0  0  0
  148.2904  165.3125  131.1501 C   0  0  0  0  0  0  0  0  0  0  0  0
  149.3607  164.6912  130.9281 O   0  0  0  0  0  0  0  0  0  0  0  0
  147.1340  164.5214  131.2927 N   0  0  0  0  0  0  0  0  0  0  0  0
  147.1282  163.0908  131.1889 C   0  0  0  0  0  0  0  0  0  0  0  0
  147.3211  162.4506  129.9840 C   0  0  0  0  0  0  0  0  0  0  0  0
  147.3067  161.0751  129.9206 C   0  0  0  0  0  0  0  0  0  0  0  0
  147.0965  160.3615  131.0817 C   0  0  0  0  0  0  0  0  0  0  0  0
  146.9029  160.9958  132.2900 C   0  0  0  0  0  0  0  0  0  0  0  0
  146.9170  162.3886  132.3571 C   0  0  0  0  0  0  0  0  0  0  0  0
  146.7067  163.0906  133.6550 C   0  0  0  0  0  0  0  0  0  0  0  0
  147.7363  164.0017  133.9079 F   0  0  0  0  0  0  0  0  0  0  0  0
  145.5587  163.8824  133.5273 F   0  0  0  0  0  0  0  0  0  0  0  0
  146.5076  162.2458  134.7092 F   0  0  0  0  0  0  0  0  0  0  0  0
  147.5129  160.3444  128.6275 C   0  0  0  0  0  0  0  0  0  0  0  0
  147.4935  158.9718  128.8171 F   0  0  0  0  0  0  0  0  0  0  0  0
  146.5785  160.7558  127.6973 F   0  0  0  0  0  0  0  0  0  0  0  0
  148.7613  160.6624  128.1296 F   0  0  0  0  0  0  0  0  0  0  0  0
  1  2  1  0
  2  3  1  0
  4  3  1  6
  4  5  1  0
  5  6  1  6
  6  7  1  0
  8  7  1  6
  8  9  1  0
  9 10  1  0
 10 11  2  0
 10 12  1  0
 12 13  2  0
 13 14  1  0
 14 15  1  6
 14 16  1  0
 16 17  1  1
 17 18  1  0
 18 19  1  0
 19 20  1  6
  1 21  1  6
 21 22  2  0
 21 23  1  0
 23 24  1  0
 24 25  2  0
 25 26  1  0
 26 27  2  0
 27 28  1  0
 28 29  2  0
 29 30  1  0
 30 31  1  0
 30 32  1  0
 30 33  1  0
 26 34  1  0
 34 35  1  0
 34 36  1  0
 34 37  1  0
 19  1  1  0
 29 24  1  0
 19  4  1  0
 16  5  1  0
 14  8  1  0
M  END
$$$$
