
     RDKit          3D

 37 41  0  0  0  0  0  0  0  0999 V2000
  164.3787  149.4663  126.5160 C   0  0  1  0  0  0  0  0  0  0  0  0
  164.8742  148.4326  125.5243 C   0  0  0  0  0  0  0  0  0  0  0  0
  166.4044  148.4186  125.6744 C   0  0  0  0  0  0  0  0  0  0  0  0
  166.5447  148.8045  127.0873 C   0  0  1  0  0  0  0  0  0  0  0  0
  167.8929  149.2937  127.5237 C   0  0  2  0  0  0  0  0  0  0  0  0
  169.0270  148.4360  127.1150 C   0  0  0  0  0  0  0  0  0  0  0  0
  169.8124  147.7704  128.1688 C   0  0  0  0  0  0  0  0  0  0  0  0
  169.8317  148.4133  129.5194 C   0  0  1  0  0  0  0  0  0  0  0  0
  171.1530  148.5640  130.0670 N   0  0  0  0  0  0  0  0  0  0  0  0
  171.1812  149.0410  131.4245 C   0  0  0  0  0  0  0  0  0  0  0  0
  172.0905  148.7244  132.2177 O   0  0  0  0  0  0  0  0  0  0  0  0
  170.0756  149.9110  131.7816 C   0  0  0  0  0  0  0  0  0  0  0  0
  169.1250  150.2472  130.9431 C   0  0  0  0  0  0  0  0  0  0  0  0
  169.1375  149.7485  129.5628 C   0  0  1  0  0  0  0  0  0  0  0  0
  169.8980  150.7872  128.7443 C   0  0  0  0  0  0  0  0  0  0  0  0
  167.7588  149.5168  129.0149 C   0  0  1  0  0  0  0  0  0  0  0  0
  166.7645  150.5777  129.3146 C   0  0  0  0  0  0  0  0  0  0  0  0
  165.4484  150.2941  128.6365 C   0  0  0  0  0  0  0  0  0  0  0  0
  165.6092  150.0210  127.1796 C   0  0  2  0  0  0  0  0  0  0  0  0
  166.1632  151.2121  126.4801 C   0  0  0  0  0  0  0  0  0  0  0  0
  163.5933  150.4786  125.7726 C   0  0  0  0  0  0  0  0  0  0  0  0
  162.3492  150.5296  125.9466 O   0  0  0  0  0  0  0  0  0  0  0  0
  164.1299  151.4129  124.8656 N   0  0  0  0  0  0  0  0  0  0  0  0
  164.2321  152.8180  125.1347 C   0  0  0  0  0  0  0  0  0  0  0  0
  165.4481  153.4663  125.1517 C   0  0  0  0  0  0  0  0  0  0  0  0
  165.5094  154.8163  125.4163 C   0  0  0  0  0  0  0  0  0  0  0  0
  164.3351  155.4964  125.6613 C   0  0  0  0  0  0  0  0  0  0  0  0
  163.1158  154.8538  125.6458 C   0  0  0  0  0  0  0  0  0  0  0  0
  163.0508  153.4868  125.3782 C   0  0  0  0  0  0  0  0  0  0  0  0
  161.7409  152.7759  125.3601 C   0  0  0  0  0  0  0  0  0  0  0  0
  161.3132  152.5406  124.0503 F   0  0  0  0  0  0  0  0  0  0  0  0
  161.9441  151.4995  125.8993 F   0  0  0  0  0  0  0  0  0  0  0  0
  160.7747  153.3877  126.1062 F   0  0  0  0  0  0  0  0  0  0  0  0
  166.8142  155.5548  125.4431 C   0  0  0  0  0  0  0  0  0  0  0  0
  167.6443  155.1461  124.4115 F   0  0  0  0  0  0  0  0  0  0  0  0
  166.5875  156.9169  125.4220 F   0  0  0  0  0  0  0  0  0  0  0  0
  167.4684  155.2616  126.6236 F   0  0  0  0  0  0  0  0  0  0  0  0
  1  2  1  0
  2  3  1  0
  4  3  1  6
  4  5  1  0
  5  6  1  1
  6  7  1  0
  8  7  1  6
  8  9  1  0
  9 10  1  0
 10 11  2  0
 10 12  1  0
 12 13  2  0
 13 14  1  0
 14 15  1  6
 14 16  1  0
 16 17  1  6
 17 18  1  0
 18 19  1  0
 19 20  1  6
  1 21  1  6
 21 22  2  0
 21 23  1  0
 23 24  1  0
 24 25  2  0
 25 26  1  0
 26 27  2  0
 27 28  1  0
 28 29  2  0
 29 30  1  0
 30 31  1  0
 30 32  1  0
 30 33  1  0
 26 34  1  0
 34 35  1  0
 34 36  1  0
 34 37  1  0
 19  1  1  0
 29 24  1  0
 19  4  1  0
 16  5  1  0
 14  8  1  0
M  END
$$$$
