
     RDKit          3D

 37 41  0  0  0  0  0  0  0  0999 V2000
  192.2650  161.0968  121.1202 C   0  0  1  0  0  0  0  0  0  0  0  0
  193.6719  161.3457  120.6141 C   0  0  0  0  0  0  0  0  0  0  0  0
  193.8542  160.3943  119.4201 C   0  0  0  0  0  0  0  0  0  0  0  0
  192.4682  160.2927  118.9366 C   0  0  1  0  0  0  0  0  0  0  0  0
  192.1521  159.1436  118.0270 C   0  0  2  0  0  0  0  0  0  0  0  0
  193.0978  158.9622  116.9038 C   0  0  0  0  0  0  0  0  0  0  0  0
  192.5944  159.1483  115.5320 C   0  0  0  0  0  0  0  0  0  0  0  0
  191.1335  158.9236  115.3011 C   0  0  1  0  0  0  0  0  0  0  0  0
  190.8524  158.0630  114.1836 N   0  0  0  0  0  0  0  0  0  0  0  0
  189.4556  157.9561  113.8544 C   0  0  0  0  0  0  0  0  0  0  0  0
  189.0650  157.7543  112.6869 O   0  0  0  0  0  0  0  0  0  0  0  0
  188.5563  158.1000  114.9847 C   0  0  0  0  0  0  0  0  0  0  0  0
  188.9707  158.3053  116.2118 C   0  0  0  0  0  0  0  0  0  0  0  0
  190.4050  158.3975  116.5090 C   0  0  1  0  0  0  0  0  0  0  0  0
  190.8589  156.9810  116.8475 C   0  0  0  0  0  0  0  0  0  0  0  0
  190.7080  159.3549  117.6254 C   0  0  1  0  0  0  0  0  0  0  0  0
  189.8038  159.2749  118.8001 C   0  0  0  0  0  0  0  0  0  0  0  0
  190.2566  160.2048  119.8967 C   0  0  0  0  0  0  0  0  0  0  0  0
  191.6962  160.0197  120.2378 C   0  0  2  0  0  0  0  0  0  0  0  0
  191.9398  158.6476  120.7602 C   0  0  0  0  0  0  0  0  0  0  0  0
  192.3501  160.7153  122.5490 C   0  0  0  0  0  0  0  0  0  0  0  0
  191.7766  159.6640  122.9318 O   0  0  0  0  0  0  0  0  0  0  0  0
  193.0338  161.4436  123.5416 N   0  0  0  0  0  0  0  0  0  0  0  0
  192.4097  162.4198  124.3871 C   0  0  0  0  0  0  0  0  0  0  0  0
  191.4061  162.0802  125.2683 C   0  0  0  0  0  0  0  0  0  0  0  0
  190.8272  163.0440  126.0634 C   0  0  0  0  0  0  0  0  0  0  0  0
  191.2727  164.3447  125.9567 C   0  0  0  0  0  0  0  0  0  0  0  0
  192.2760  164.6909  125.0774 C   0  0  0  0  0  0  0  0  0  0  0  0
  192.8640  163.7169  124.2710 C   0  0  0  0  0  0  0  0  0  0  0  0
  193.9483  164.0745  123.3130 C   0  0  0  0  0  0  0  0  0  0  0  0
  194.8362  163.0095  123.1362 F   0  0  0  0  0  0  0  0  0  0  0  0
  193.3597  164.2552  122.0551 F   0  0  0  0  0  0  0  0  0  0  0  0
  194.6013  165.2309  123.6306 F   0  0  0  0  0  0  0  0  0  0  0  0
  189.7330  162.7115  127.0333 C   0  0  0  0  0  0  0  0  0  0  0  0
  189.4446  161.3561  127.0203 F   0  0  0  0  0  0  0  0  0  0  0  0
  190.0666  163.1618  128.2955 F   0  0  0  0  0  0  0  0  0  0  0  0
  188.5812  163.3698  126.6492 F   0  0  0  0  0  0  0  0  0  0  0  0
  1  2  1  0
  2  3  1  0
  4  3  1  1
  4  5  1  0
  5  6  1  6
  6  7  1  0
  8  7  1  1
  8  9  1  0
  9 10  1  0
 10 11  2  0
 10 12  1  0
 12 13  2  0
 13 14  1  0
 14 15  1  1
 14 16  1  0
 16 17  1  1
 17 18  1  0
 18 19  1  0
 19 20  1  1
  1 21  1  1
 21 22  2  0
 21 23  1  0
 23 24  1  0
 24 25  2  0
 25 26  1  0
 26 27  2  0
 27 28  1  0
 28 29  2  0
 29 30  1  0
 30 31  1  0
 30 32  1  0
 30 33  1  0
 26 34  1  0
 34 35  1  0
 34 36  1  0
 34 37  1  0
 19  1  1  0
 29 24  1  0
 19  4  1  0
 16  5  1  0
 14  8  1  0
M  END
$$$$
