
     RDKit          3D

 37 41  0  0  0  0  0  0  0  0999 V2000
  167.5432  149.6769  125.9492 C   0  0  1  0  0  0  0  0  0  0  0  0
  167.9196  150.9200  125.1679 C   0  0  0  0  0  0  0  0  0  0  0  0
  167.2495  152.0897  125.9075 C   0  0  0  0  0  0  0  0  0  0  0  0
  167.2293  151.5684  127.2833 C   0  0  1  0  0  0  0  0  0  0  0  0
  166.2964  152.2388  128.2465 C   0  0  2  0  0  0  0  0  0  0  0  0
  166.3767  153.7160  128.2628 C   0  0  0  0  0  0  0  0  0  0  0  0
  166.8435  154.3750  129.4949 C   0  0  0  0  0  0  0  0  0  0  0  0
  166.6476  153.6393  130.7827 C   0  0  1  0  0  0  0  0  0  0  0  0
  166.0416  154.4363  131.8151 N   0  0  0  0  0  0  0  0  0  0  0  0
  165.9830  153.7945  133.1019 C   0  0  0  0  0  0  0  0  0  0  0  0
  166.0292  154.4427  134.1668 O   0  0  0  0  0  0  0  0  0  0  0  0
  165.8654  152.3486  133.0504 C   0  0  0  0  0  0  0  0  0  0  0  0
  165.8103  151.6710  131.9290 C   0  0  0  0  0  0  0  0  0  0  0  0
  165.8620  152.3634  130.6360 C   0  0  1  0  0  0  0  0  0  0  0  0
  164.4142  152.6535  130.2530 C   0  0  0  0  0  0  0  0  0  0  0  0
  166.5632  151.5646  129.5753 C   0  0  1  0  0  0  0  0  0  0  0  0
  166.2174  150.1217  129.5275 C   0  0  0  0  0  0  0  0  0  0  0  0
  166.8986  149.4393  128.3688 C   0  0  0  0  0  0  0  0  0  0  0  0
  166.6703  150.1510  127.0787 C   0  0  2  0  0  0  0  0  0  0  0  0
  165.2226  150.1607  126.7334 C   0  0  0  0  0  0  0  0  0  0  0  0
  166.8659  148.7388  125.0243 C   0  0  0  0  0  0  0  0  0  0  0  0
  166.1628  147.8139  125.5048 O   0  0  0  0  0  0  0  0  0  0  0  0
  166.9412  148.7924  123.6190 N   0  0  0  0  0  0  0  0  0  0  0  0
  167.6780  147.8539  122.8231 C   0  0  0  0  0  0  0  0  0  0  0  0
  168.6237  148.2641  121.9085 C   0  0  0  0  0  0  0  0  0  0  0  0
  169.3108  147.3353  121.1591 C   0  0  0  0  0  0  0  0  0  0  0  0
  169.0314  145.9978  121.3450 C   0  0  0  0  0  0  0  0  0  0  0  0
  168.0867  145.5811  122.2581 C   0  0  0  0  0  0  0  0  0  0  0  0
  167.3895  146.5194  123.0183 C   0  0  0  0  0  0  0  0  0  0  0  0
  166.3629  146.0862  124.0082 C   0  0  0  0  0  0  0  0  0  0  0  0
  166.2603  144.6928  124.0509 F   0  0  0  0  0  0  0  0  0  0  0  0
  166.8237  146.4449  125.2810 F   0  0  0  0  0  0  0  0  0  0  0  0
  165.1454  146.6784  123.8303 F   0  0  0  0  0  0  0  0  0  0  0  0
  170.3463  147.7446  120.1548 C   0  0  0  0  0  0  0  0  0  0  0  0
  171.4990  148.1968  120.7771 F   0  0  0  0  0  0  0  0  0  0  0  0
  170.5981  146.7031  119.2835 F   0  0  0  0  0  0  0  0  0  0  0  0
  169.8536  148.7982  119.4101 F   0  0  0  0  0  0  0  0  0  0  0  0
  1  2  1  0
  2  3  1  0
  4  3  1  6
  4  5  1  0
  5  6  1  1
  6  7  1  0
  8  7  1  6
  8  9  1  0
  9 10  1  0
 10 11  2  0
 10 12  1  0
 12 13  2  0
 13 14  1  0
 14 15  1  6
 14 16  1  0
 16 17  1  6
 17 18  1  0
 18 19  1  0
 19 20  1  6
  1 21  1  6
 21 22  2  0
 21 23  1  0
 23 24  1  0
 24 25  2  0
 25 26  1  0
 26 27  2  0
 27 28  1  0
 28 29  2  0
 29 30  1  0
 30 31  1  0
 30 32  1  0
 30 33  1  0
 26 34  1  0
 34 35  1  0
 34 36  1  0
 34 37  1  0
 19  1  1  0
 29 24  1  0
 19  4  1  0
 16  5  1  0
 14  8  1  0
M  END
$$$$
