
     RDKit          3D

 37 41  0  0  0  0  0  0  0  0999 V2000
  207.5376  134.3978  134.9849 C   0  0  1  0  0  0  0  0  0  0  0  0
  207.2867  133.4633  136.1516 C   0  0  0  0  0  0  0  0  0  0  0  0
  205.7588  133.4112  136.3160 C   0  0  0  0  0  0  0  0  0  0  0  0
  205.3258  133.6489  134.9300 C   0  0  1  0  0  0  0  0  0  0  0  0
  203.9012  134.0709  134.7299 C   0  0  2  0  0  0  0  0  0  0  0  0
  202.9024  133.2425  135.4405 C   0  0  0  0  0  0  0  0  0  0  0  0
  201.9464  132.4613  134.6368 C   0  0  0  0  0  0  0  0  0  0  0  0
  201.6352  132.9629  133.2622 C   0  0  1  0  0  0  0  0  0  0  0  0
  200.2268  133.0372  132.9810 N   0  0  0  0  0  0  0  0  0  0  0  0
  199.9114  133.3728  131.6176 C   0  0  0  0  0  0  0  0  0  0  0  0
  198.8738  132.9635  131.0590 O   0  0  0  0  0  0  0  0  0  0  0  0
  200.8921  134.2184  130.9618 C   0  0  0  0  0  0  0  0  0  0  0  0
  201.9786  134.6524  131.5543 C   0  0  0  0  0  0  0  0  0  0  0  0
  202.2594  134.2969  132.9503 C   0  0  1  0  0  0  0  0  0  0  0  0
  201.6416  135.4021  133.8011 C   0  0  0  0  0  0  0  0  0  0  0  0
  203.7271  134.1428  133.2279 C   0  0  1  0  0  0  0  0  0  0  0  0
  204.6036  135.1824  132.6322 C   0  0  0  0  0  0  0  0  0  0  0  0
  206.0377  134.9890  133.0544 C   0  0  0  0  0  0  0  0  0  0  0  0
  206.1806  134.8635  134.5332 C   0  0  2  0  0  0  0  0  0  0  0  0
  205.7359  136.1114  135.2115 C   0  0  0  0  0  0  0  0  0  0  0  0
  208.4195  135.4923  135.4526 C   0  0  0  0  0  0  0  0  0  0  0  0
  207.9997  136.6760  135.3968 O   0  0  0  0  0  0  0  0  0  0  0  0
  209.7190  135.3203  135.9675 N   0  0  0  0  0  0  0  0  0  0  0  0
  210.9138  135.5052  135.1960 C   0  0  0  0  0  0  0  0  0  0  0  0
  210.9072  136.1959  134.0035 C   0  0  0  0  0  0  0  0  0  0  0  0
  212.0728  136.3521  133.2872 C   0  0  0  0  0  0  0  0  0  0  0  0
  213.2355  135.8055  133.7883 C   0  0  0  0  0  0  0  0  0  0  0  0
  213.2488  135.1136  134.9803 C   0  0  0  0  0  0  0  0  0  0  0  0
  212.0698  134.9538  135.7077 C   0  0  0  0  0  0  0  0  0  0  0  0
  212.0660  134.2063  136.9971 C   0  0  0  0  0  0  0  0  0  0  0  0
  211.4863  134.9651  138.0180 F   0  0  0  0  0  0  0  0  0  0  0  0
  211.2120  133.1066  136.8468 F   0  0  0  0  0  0  0  0  0  0  0  0
  213.2931  133.7271  137.3567 F   0  0  0  0  0  0  0  0  0  0  0  0
  212.1036  137.0972  131.9863 C   0  0  0  0  0  0  0  0  0  0  0  0
  211.5565  138.3635  132.1192 F   0  0  0  0  0  0  0  0  0  0  0  0
  213.3930  137.1350  131.4930 F   0  0  0  0  0  0  0  0  0  0  0  0
  211.3274  136.4201  131.0661 F   0  0  0  0  0  0  0  0  0  0  0  0
  1  2  1  0
  2  3  1  0
  4  3  1  1
  4  5  1  0
  5  6  1  6
  6  7  1  0
  8  7  1  1
  8  9  1  0
  9 10  1  0
 10 11  2  0
 10 12  1  0
 12 13  2  0
 13 14  1  0
 14 15  1  1
 14 16  1  0
 16 17  1  1
 17 18  1  0
 18 19  1  0
 19 20  1  1
  1 21  1  1
 21 22  2  0
 21 23  1  0
 23 24  1  0
 24 25  2  0
 25 26  1  0
 26 27  2  0
 27 28  1  0
 28 29  2  0
 29 30  1  0
 30 31  1  0
 30 32  1  0
 30 33  1  0
 26 34  1  0
 34 35  1  0
 34 36  1  0
 34 37  1  0
 19  1  1  0
 29 24  1  0
 19  4  1  0
 16  5  1  0
 14  8  1  0
M  END
$$$$
