
     RDKit          3D

 37 41  0  0  0  0  0  0  0  0999 V2000
  189.8891  160.5523  117.1094 C   0  0  1  0  0  0  0  0  0  0  0  0
  191.1078  160.0405  116.3676 C   0  0  0  0  0  0  0  0  0  0  0  0
  192.0588  159.5116  117.4539 C   0  0  0  0  0  0  0  0  0  0  0  0
  191.0941  159.1001  118.4860 C   0  0  1  0  0  0  0  0  0  0  0  0
  191.6310  158.8990  119.8712 C   0  0  2  0  0  0  0  0  0  0  0  0
  192.8488  158.0626  119.9500 C   0  0  0  0  0  0  0  0  0  0  0  0
  192.7639  156.7729  120.6570 C   0  0  0  0  0  0  0  0  0  0  0  0
  191.7150  156.6386  121.7152 C   0  0  1  0  0  0  0  0  0  0  0  0
  192.2138  156.1123  122.9572 N   0  0  0  0  0  0  0  0  0  0  0  0
  191.1951  155.8354  123.9353 C   0  0  0  0  0  0  0  0  0  0  0  0
  191.3182  154.9241  124.7784 O   0  0  0  0  0  0  0  0  0  0  0  0
  190.0310  156.6988  123.8555 C   0  0  0  0  0  0  0  0  0  0  0  0
  189.9079  157.6602  122.9722 C   0  0  0  0  0  0  0  0  0  0  0  0
  190.9744  157.9186  121.9976 C   0  0  1  0  0  0  0  0  0  0  0  0
  191.8940  158.9521  122.6405 C   0  0  0  0  0  0  0  0  0  0  0  0
  190.4504  158.3949  120.6735 C   0  0  1  0  0  0  0  0  0  0  0  0
  189.3703  159.4112  120.7409 C   0  0  0  0  0  0  0  0  0  0  0  0
  188.9901  159.8901  119.3631 C   0  0  0  0  0  0  0  0  0  0  0  0
  190.1735  160.3285  118.5693 C   0  0  2  0  0  0  0  0  0  0  0  0
  190.8406  161.4896  119.2189 C   0  0  0  0  0  0  0  0  0  0  0  0
  189.6954  161.9762  116.7501 C   0  0  0  0  0  0  0  0  0  0  0  0
  189.3143  162.7801  117.6385 O   0  0  0  0  0  0  0  0  0  0  0  0
  189.9060  162.5236  115.4697 N   0  0  0  0  0  0  0  0  0  0  0  0
  189.9358  163.9318  115.1990 C   0  0  0  0  0  0  0  0  0  0  0  0
  188.9174  164.7688  115.6004 C   0  0  0  0  0  0  0  0  0  0  0  0
  188.9776  166.1159  115.3212 C   0  0  0  0  0  0  0  0  0  0  0  0
  190.0718  166.6014  114.6366 C   0  0  0  0  0  0  0  0  0  0  0  0
  191.0936  165.7694  114.2323 C   0  0  0  0  0  0  0  0  0  0  0  0
  191.0352  164.4049  114.5137 C   0  0  0  0  0  0  0  0  0  0  0  0
  192.1303  163.4908  114.0815 C   0  0  0  0  0  0  0  0  0  0  0  0
  192.6540  162.7830  115.1671 F   0  0  0  0  0  0  0  0  0  0  0  0
  191.5628  162.5081  113.2607 F   0  0  0  0  0  0  0  0  0  0  0  0
  193.1104  164.1115  113.3612 F   0  0  0  0  0  0  0  0  0  0  0  0
  187.8884  167.0566  115.7422 C   0  0  0  0  0  0  0  0  0  0  0  0
  187.9048  167.2637  117.1124 F   0  0  0  0  0  0  0  0  0  0  0  0
  187.9844  168.2388  115.0348 F   0  0  0  0  0  0  0  0  0  0  0  0
  186.6665  166.4892  115.4375 F   0  0  0  0  0  0  0  0  0  0  0  0
  1  2  1  0
  2  3  1  0
  4  3  1  6
  4  5  1  0
  5  6  1  6
  6  7  1  0
  8  7  1  6
  8  9  1  0
  9 10  1  0
 10 11  2  0
 10 12  1  0
 12 13  2  0
 13 14  1  0
 14 15  1  1
 14 16  1  0
 16 17  1  1
 17 18  1  0
 18 19  1  0
 19 20  1  1
  1 21  1  1
 21 22  2  0
 21 23  1  0
 23 24  1  0
 24 25  2  0
 25 26  1  0
 26 27  2  0
 27 28  1  0
 28 29  2  0
 29 30  1  0
 30 31  1  0
 30 32  1  0
 30 33  1  0
 26 34  1  0
 34 35  1  0
 34 36  1  0
 34 37  1  0
 19  1  1  0
 29 24  1  0
 19  4  1  0
 16  5  1  0
 14  8  1  0
M  END
$$$$
