
     RDKit          3D

 37 41  0  0  0  0  0  0  0  0999 V2000
  146.6763  166.3785  134.6240 C   0  0  1  0  0  0  0  0  0  0  0  0
  147.9984  166.9960  135.0341 C   0  0  0  0  0  0  0  0  0  0  0  0
  148.1708  168.2330  134.1371 C   0  0  0  0  0  0  0  0  0  0  0  0
  146.7651  168.5975  133.9000 C   0  0  1  0  0  0  0  0  0  0  0  0
  146.4900  169.5146  132.7463 C   0  0  2  0  0  0  0  0  0  0  0  0
  147.3447  170.7211  132.6946 C   0  0  0  0  0  0  0  0  0  0  0  0
  146.7033  172.0370  132.8594 C   0  0  0  0  0  0  0  0  0  0  0  0
  145.2590  172.1477  132.4856 C   0  0  1  0  0  0  0  0  0  0  0  0
  144.9699  173.2651  131.6276 N   0  0  0  0  0  0  0  0  0  0  0  0
  143.5678  173.4753  131.3802 C   0  0  0  0  0  0  0  0  0  0  0  0
  143.0971  174.6106  131.1665 O   0  0  0  0  0  0  0  0  0  0  0  0
  142.7637  172.2670  131.3994 C   0  0  0  0  0  0  0  0  0  0  0  0
  143.2631  171.0742  131.6177 C   0  0  0  0  0  0  0  0  0  0  0  0
  144.7008  170.8996  131.8552 C   0  0  1  0  0  0  0  0  0  0  0  0
  145.3285  170.6500  130.4875 C   0  0  0  0  0  0  0  0  0  0  0  0
  145.0015  169.7820  132.8119 C   0  0  1  0  0  0  0  0  0  0  0  0
  144.2199  168.5366  132.6070 C   0  0  0  0  0  0  0  0  0  0  0  0
  144.6700  167.4526  133.5528 C   0  0  0  0  0  0  0  0  0  0  0  0
  146.1458  167.2442  133.5143 C   0  0  2  0  0  0  0  0  0  0  0  0
  146.5772  166.7917  132.1637 C   0  0  0  0  0  0  0  0  0  0  0  0
  146.9287  164.9763  134.2188 C   0  0  0  0  0  0  0  0  0  0  0  0
  146.2816  164.0562  134.7803 O   0  0  0  0  0  0  0  0  0  0  0  0
  147.8523  164.5719  133.2355 N   0  0  0  0  0  0  0  0  0  0  0  0
  147.4757  164.0372  131.9590 C   0  0  0  0  0  0  0  0  0  0  0  0
  147.4691  164.8143  130.8209 C   0  0  0  0  0  0  0  0  0  0  0  0
  147.0992  164.2685  129.6120 C   0  0  0  0  0  0  0  0  0  0  0  0
  146.7393  162.9380  129.5692 C   0  0  0  0  0  0  0  0  0  0  0  0
  146.7437  162.1555  130.7039 C   0  0  0  0  0  0  0  0  0  0  0  0
  147.1178  162.7056  131.9295 C   0  0  0  0  0  0  0  0  0  0  0  0
  147.1257  161.8743  133.1665 C   0  0  0  0  0  0  0  0  0  0  0  0
  146.4098  162.4940  134.1949 F   0  0  0  0  0  0  0  0  0  0  0  0
  146.4086  160.7026  132.8942 F   0  0  0  0  0  0  0  0  0  0  0  0
  148.3766  161.5054  133.5713 F   0  0  0  0  0  0  0  0  0  0  0  0
  147.0801  165.0833  128.3533 C   0  0  0  0  0  0  0  0  0  0  0  0
  145.8841  164.9265  127.6712 F   0  0  0  0  0  0  0  0  0  0  0  0
  147.3460  166.4073  128.6426 F   0  0  0  0  0  0  0  0  0  0  0  0
  148.0812  164.6329  127.5152 F   0  0  0  0  0  0  0  0  0  0  0  0
  1  2  1  0
  2  3  1  0
  4  3  1  6
  4  5  1  0
  5  6  1  1
  6  7  1  0
  8  7  1  6
  8  9  1  0
  9 10  1  0
 10 11  2  0
 10 12  1  0
 12 13  2  0
 13 14  1  0
 14 15  1  6
 14 16  1  0
 16 17  1  6
 17 18  1  0
 18 19  1  0
 19 20  1  6
  1 21  1  6
 21 22  2  0
 21 23  1  0
 23 24  1  0
 24 25  2  0
 25 26  1  0
 26 27  2  0
 27 28  1  0
 28 29  2  0
 29 30  1  0
 30 31  1  0
 30 32  1  0
 30 33  1  0
 26 34  1  0
 34 35  1  0
 34 36  1  0
 34 37  1  0
 19  1  1  0
 29 24  1  0
 19  4  1  0
 16  5  1  0
 14  8  1  0
M  END
$$$$
