
     RDKit          3D

 37 41  0  0  0  0  0  0  0  0999 V2000
  207.4039  137.1562  136.0745 C   0  0  1  0  0  0  0  0  0  0  0  0
  206.8408  136.9907  137.4721 C   0  0  0  0  0  0  0  0  0  0  0  0
  205.4019  136.4843  137.2788 C   0  0  0  0  0  0  0  0  0  0  0  0
  205.5367  135.7544  136.0083 C   0  0  1  0  0  0  0  0  0  0  0  0
  204.2699  135.4466  135.2680 C   0  0  2  0  0  0  0  0  0  0  0  0
  203.2004  134.8415  136.0920 C   0  0  0  0  0  0  0  0  0  0  0  0
  202.7747  133.4660  135.7806 C   0  0  0  0  0  0  0  0  0  0  0  0
  202.9768  132.9864  134.3781 C   0  0  1  0  0  0  0  0  0  0  0  0
  201.8076  132.3773  133.8034 N   0  0  0  0  0  0  0  0  0  0  0  0
  202.0253  131.7766  132.5139 C   0  0  0  0  0  0  0  0  0  0  0  0
  201.3731  130.7858  132.1274 O   0  0  0  0  0  0  0  0  0  0  0  0
  203.0539  132.4177  131.7152 C   0  0  0  0  0  0  0  0  0  0  0  0
  203.7328  133.4633  132.1220 C   0  0  0  0  0  0  0  0  0  0  0  0
  203.4737  134.0541  133.4402 C   0  0  1  0  0  0  0  0  0  0  0  0
  202.4120  135.1275  133.2217 C   0  0  0  0  0  0  0  0  0  0  0  0
  204.7093  134.6224  134.0767 C   0  0  1  0  0  0  0  0  0  0  0  0
  205.5914  135.4051  133.1749 C   0  0  0  0  0  0  0  0  0  0  0  0
  206.7439  136.0100  133.9352 C   0  0  0  0  0  0  0  0  0  0  0  0
  206.2935  136.7696  135.1365 C   0  0  2  0  0  0  0  0  0  0  0  0
  205.4372  137.9203  134.7395 C   0  0  0  0  0  0  0  0  0  0  0  0
  207.8531  138.5595  135.9220 C   0  0  0  0  0  0  0  0  0  0  0  0
  208.1104  138.9928  134.7702 O   0  0  0  0  0  0  0  0  0  0  0  0
  208.0214  139.4747  136.9791 N   0  0  0  0  0  0  0  0  0  0  0  0
  209.2937  139.8064  137.5522 C   0  0  0  0  0  0  0  0  0  0  0  0
  210.4774  139.4133  136.9662 C   0  0  0  0  0  0  0  0  0  0  0  0
  211.6813  139.7473  137.5454 C   0  0  0  0  0  0  0  0  0  0  0  0
  211.6726  140.4777  138.7150 C   0  0  0  0  0  0  0  0  0  0  0  0
  210.4922  140.8739  139.3061 C   0  0  0  0  0  0  0  0  0  0  0  0
  209.2717  140.5371  138.7218 C   0  0  0  0  0  0  0  0  0  0  0  0
  207.9859  140.9552  139.3491 C   0  0  0  0  0  0  0  0  0  0  0  0
  207.2859  139.8524  139.8470 F   0  0  0  0  0  0  0  0  0  0  0  0
  208.2956  141.7172  140.4825 F   0  0  0  0  0  0  0  0  0  0  0  0
  207.2048  141.7263  138.5368 F   0  0  0  0  0  0  0  0  0  0  0  0
  212.9886  139.3369  136.9364 C   0  0  0  0  0  0  0  0  0  0  0  0
  213.8009  138.7078  137.8664 F   0  0  0  0  0  0  0  0  0  0  0  0
  212.7660  138.5517  135.8223 F   0  0  0  0  0  0  0  0  0  0  0  0
  213.6607  140.4688  136.5182 F   0  0  0  0  0  0  0  0  0  0  0  0
  1  2  1  0
  2  3  1  0
  4  3  1  1
  4  5  1  0
  5  6  1  1
  6  7  1  0
  8  7  1  1
  8  9  1  0
  9 10  1  0
 10 11  2  0
 10 12  1  0
 12 13  2  0
 13 14  1  0
 14 15  1  6
 14 16  1  0
 16 17  1  6
 17 18  1  0
 18 19  1  0
 19 20  1  6
  1 21  1  6
 21 22  2  0
 21 23  1  0
 23 24  1  0
 24 25  2  0
 25 26  1  0
 26 27  2  0
 27 28  1  0
 28 29  2  0
 29 30  1  0
 30 31  1  0
 30 32  1  0
 30 33  1  0
 26 34  1  0
 34 35  1  0
 34 36  1  0
 34 37  1  0
 19  1  1  0
 29 24  1  0
 19  4  1  0
 16  5  1  0
 14  8  1  0
M  END
$$$$
