
     RDKit          3D

 37 41  0  0  0  0  0  0  0  0999 V2000
  150.9327  177.7923  135.6595 C   0  0  1  0  0  0  0  0  0  0  0  0
  151.8484  178.9868  135.4799 C   0  0  0  0  0  0  0  0  0  0  0  0
  152.0726  179.5497  136.8931 C   0  0  0  0  0  0  0  0  0  0  0  0
  151.9360  178.3268  137.7000 C   0  0  1  0  0  0  0  0  0  0  0  0
  151.6904  178.5094  139.1676 C   0  0  2  0  0  0  0  0  0  0  0  0
  152.6042  179.4615  139.8366 C   0  0  0  0  0  0  0  0  0  0  0  0
  153.5194  178.9417  140.8673 C   0  0  0  0  0  0  0  0  0  0  0  0
  153.1063  177.6968  141.5867 C   0  0  1  0  0  0  0  0  0  0  0  0
  153.2068  177.7980  143.0177 N   0  0  0  0  0  0  0  0  0  0  0  0
  152.9585  176.5655  143.7180 C   0  0  0  0  0  0  0  0  0  0  0  0
  153.5055  176.3025  144.8079 O   0  0  0  0  0  0  0  0  0  0  0  0
  152.0279  175.6709  143.0541 C   0  0  0  0  0  0  0  0  0  0  0  0
  151.4495  175.9536  141.9116 C   0  0  0  0  0  0  0  0  0  0  0  0
  151.7204  177.2267  141.2334 C   0  0  1  0  0  0  0  0  0  0  0  0
  150.6655  178.2071  141.7365 C   0  0  0  0  0  0  0  0  0  0  0  0
  151.6923  177.1067  139.7369 C   0  0  1  0  0  0  0  0  0  0  0  0
  150.5792  176.2971  139.1806 C   0  0  0  0  0  0  0  0  0  0  0  0
  150.5889  176.3255  137.6735 C   0  0  0  0  0  0  0  0  0  0  0  0
  150.6447  177.7142  137.1337 C   0  0  2  0  0  0  0  0  0  0  0  0
  149.4342  178.4821  137.5336 C   0  0  0  0  0  0  0  0  0  0  0  0
  149.7271  178.0067  134.8260 C   0  0  0  0  0  0  0  0  0  0  0  0
  148.7959  177.1635  134.8772 O   0  0  0  0  0  0  0  0  0  0  0  0
  149.5259  179.0987  133.9597 N   0  0  0  0  0  0  0  0  0  0  0  0
  148.6801  180.2156  134.2670 C   0  0  0  0  0  0  0  0  0  0  0  0
  147.3566  180.0491  134.6132 C   0  0  0  0  0  0  0  0  0  0  0  0
  146.5727  181.1444  134.8994 C   0  0  0  0  0  0  0  0  0  0  0  0
  147.1396  182.3996  134.8317 C   0  0  0  0  0  0  0  0  0  0  0  0
  148.4626  182.5729  134.4861 C   0  0  0  0  0  0  0  0  0  0  0  0
  149.2588  181.4655  134.1956 C   0  0  0  0  0  0  0  0  0  0  0  0
  150.6905  181.6351  133.8177 C   0  0  0  0  0  0  0  0  0  0  0  0
  151.5366  181.2439  134.8593 F   0  0  0  0  0  0  0  0  0  0  0  0
  150.9652  180.7327  132.7825 F   0  0  0  0  0  0  0  0  0  0  0  0
  150.9929  182.8865  133.3624 F   0  0  0  0  0  0  0  0  0  0  0  0
  145.1292  181.0016  135.2796 C   0  0  0  0  0  0  0  0  0  0  0  0
  144.4557  182.2066  135.1577 F   0  0  0  0  0  0  0  0  0  0  0  0
  144.5410  179.9976  134.5358 F   0  0  0  0  0  0  0  0  0  0  0  0
  145.0523  180.6325  136.6083 F   0  0  0  0  0  0  0  0  0  0  0  0
  1  2  1  0
  2  3  1  0
  4  3  1  6
  4  5  1  0
  5  6  1  1
  6  7  1  0
  8  7  1  6
  8  9  1  0
  9 10  1  0
 10 11  2  0
 10 12  1  0
 12 13  2  0
 13 14  1  0
 14 15  1  1
 14 16  1  0
 16 17  1  1
 17 18  1  0
 18 19  1  0
 19 20  1  6
  1 21  1  6
 21 22  2  0
 21 23  1  0
 23 24  1  0
 24 25  2  0
 25 26  1  0
 26 27  2  0
 27 28  1  0
 28 29  2  0
 29 30  1  0
 30 31  1  0
 30 32  1  0
 30 33  1  0
 26 34  1  0
 34 35  1  0
 34 36  1  0
 34 37  1  0
 19  1  1  0
 29 24  1  0
 19  4  1  0
 16  5  1  0
 14  8  1  0
M  END
$$$$
