
     RDKit          3D

 37 41  0  0  0  0  0  0  0  0999 V2000
  147.6902  168.9259  130.8745 C   0  0  1  0  0  0  0  0  0  0  0  0
  147.1481  169.4174  129.5471 C   0  0  0  0  0  0  0  0  0  0  0  0
  145.7516  169.9816  129.8563 C   0  0  0  0  0  0  0  0  0  0  0  0
  145.9361  170.4225  131.2479 C   0  0  1  0  0  0  0  0  0  0  0  0
  144.6933  170.6674  132.0498 C   0  0  2  0  0  0  0  0  0  0  0  0
  143.6774  171.5086  131.3796 C   0  0  0  0  0  0  0  0  0  0  0  0
  143.3574  172.8192  131.9713 C   0  0  0  0  0  0  0  0  0  0  0  0
  143.5892  172.9837  133.4401 C   0  0  1  0  0  0  0  0  0  0  0  0
  142.4677  173.5491  134.1406 N   0  0  0  0  0  0  0  0  0  0  0  0
  142.7250  173.8537  135.5234 C   0  0  0  0  0  0  0  0  0  0  0  0
  142.1492  174.7907  136.1123 O   0  0  0  0  0  0  0  0  0  0  0  0
  143.6974  172.9856  136.1620 C   0  0  0  0  0  0  0  0  0  0  0  0
  144.2958  171.9971  135.5417 C   0  0  0  0  0  0  0  0  0  0  0  0
  143.9981  171.7113  134.1333 C   0  0  1  0  0  0  0  0  0  0  0  0
  142.8559  170.7002  134.1388 C   0  0  0  0  0  0  0  0  0  0  0  0
  145.1893  171.1933  133.3799 C   0  0  1  0  0  0  0  0  0  0  0  0
  146.0043  170.1771  134.0919 C   0  0  0  0  0  0  0  0  0  0  0  0
  147.1104  169.6552  133.2108 C   0  0  0  0  0  0  0  0  0  0  0  0
  146.6085  169.1952  131.8844 C   0  0  2  0  0  0  0  0  0  0  0  0
  145.6643  168.0562  132.0464 C   0  0  0  0  0  0  0  0  0  0  0  0
  148.0293  167.4911  130.7309 C   0  0  0  0  0  0  0  0  0  0  0  0
  148.9111  166.9978  131.4790 O   0  0  0  0  0  0  0  0  0  0  0  0
  147.4365  166.6081  129.8077 N   0  0  0  0  0  0  0  0  0  0  0  0
  147.9972  166.3017  128.5236 C   0  0  0  0  0  0  0  0  0  0  0  0
  147.9267  167.1889  127.4714 C   0  0  0  0  0  0  0  0  0  0  0  0
  148.4737  166.8607  126.2511 C   0  0  0  0  0  0  0  0  0  0  0  0
  149.0878  165.6341  126.1097 C   0  0  0  0  0  0  0  0  0  0  0  0
  149.1615  164.7423  127.1581 C   0  0  0  0  0  0  0  0  0  0  0  0
  148.6084  165.0721  128.3950 C   0  0  0  0  0  0  0  0  0  0  0  0
  148.6771  164.1184  129.5384 C   0  0  0  0  0  0  0  0  0  0  0  0
  147.3983  163.7813  129.9910 F   0  0  0  0  0  0  0  0  0  0  0  0
  149.2086  162.9160  129.0558 F   0  0  0  0  0  0  0  0  0  0  0  0
  149.4799  164.5422  130.5583 F   0  0  0  0  0  0  0  0  0  0  0  0
  148.4160  167.8006  125.0841 C   0  0  0  0  0  0  0  0  0  0  0  0
  149.6867  168.1706  124.6734 F   0  0  0  0  0  0  0  0  0  0  0  0
  147.6796  167.2386  124.0598 F   0  0  0  0  0  0  0  0  0  0  0  0
  147.7686  168.9566  125.4742 F   0  0  0  0  0  0  0  0  0  0  0  0
  1  2  1  0
  2  3  1  0
  4  3  1  6
  4  5  1  0
  5  6  1  6
  6  7  1  0
  8  7  1  6
  8  9  1  0
  9 10  1  0
 10 11  2  0
 10 12  1  0
 12 13  2  0
 13 14  1  0
 14 15  1  1
 14 16  1  0
 16 17  1  1
 17 18  1  0
 18 19  1  0
 19 20  1  1
  1 21  1  6
 21 22  2  0
 21 23  1  0
 23 24  1  0
 24 25  2  0
 25 26  1  0
 26 27  2  0
 27 28  1  0
 28 29  2  0
 29 30  1  0
 30 31  1  0
 30 32  1  0
 30 33  1  0
 26 34  1  0
 34 35  1  0
 34 36  1  0
 34 37  1  0
 19  1  1  0
 29 24  1  0
 19  4  1  0
 16  5  1  0
 14  8  1  0
M  END
$$$$
