
     RDKit          3D

 37 41  0  0  0  0  0  0  0  0999 V2000
  117.5222  167.4604  141.8974 C   0  0  1  0  0  0  0  0  0  0  0  0
  117.1349  168.7990  141.3010 C   0  0  0  0  0  0  0  0  0  0  0  0
  115.8421  169.2129  142.0232 C   0  0  0  0  0  0  0  0  0  0  0  0
  116.0335  168.5558  143.3258 C   0  0  1  0  0  0  0  0  0  0  0  0
  114.8144  168.3820  144.1808 C   0  0  2  0  0  0  0  0  0  0  0  0
  113.9895  169.5997  144.3411 C   0  0  0  0  0  0  0  0  0  0  0  0
  113.8702  170.1886  145.6862 C   0  0  0  0  0  0  0  0  0  0  0  0
  114.0574  169.2733  146.8546 C   0  0  1  0  0  0  0  0  0  0  0  0
  113.0170  169.3793  147.8419 N   0  0  0  0  0  0  0  0  0  0  0  0
  113.2571  168.6190  149.0400 C   0  0  0  0  0  0  0  0  0  0  0  0
  112.8226  168.9819  150.1516 O   0  0  0  0  0  0  0  0  0  0  0  0
  114.0361  167.4104  148.8419 C   0  0  0  0  0  0  0  0  0  0  0  0
  114.4857  167.0284  147.6706 C   0  0  0  0  0  0  0  0  0  0  0  0
  114.2102  167.8259  146.4698 C   0  0  1  0  0  0  0  0  0  0  0  0
  112.9133  167.2757  145.8846 C   0  0  0  0  0  0  0  0  0  0  0  0
  115.3296  167.7788  145.4701 C   0  0  1  0  0  0  0  0  0  0  0  0
  115.9250  166.4387  145.2388 C   0  0  0  0  0  0  0  0  0  0  0  0
  116.9660  166.4889  144.1497 C   0  0  0  0  0  0  0  0  0  0  0  0
  116.4560  167.1378  142.9081 C   0  0  2  0  0  0  0  0  0  0  0  0
  115.3248  166.3587  142.3350 C   0  0  0  0  0  0  0  0  0  0  0  0
  117.6180  166.4754  140.7953 C   0  0  0  0  0  0  0  0  0  0  0  0
  116.5981  166.2442  140.0973 O   0  0  0  0  0  0  0  0  0  0  0  0
  118.7792  165.7569  140.4509 N   0  0  0  0  0  0  0  0  0  0  0  0
  119.0440  164.4146  140.8815 C   0  0  0  0  0  0  0  0  0  0  0  0
  119.3418  164.1199  142.1943 C   0  0  0  0  0  0  0  0  0  0  0  0
  119.5934  162.8199  142.5723 C   0  0  0  0  0  0  0  0  0  0  0  0
  119.5403  161.8301  141.6135 C   0  0  0  0  0  0  0  0  0  0  0  0
  119.2431  162.1183  140.2988 C   0  0  0  0  0  0  0  0  0  0  0  0
  118.9880  163.4340  139.9133 C   0  0  0  0  0  0  0  0  0  0  0  0
  118.6676  163.7634  138.4955 C   0  0  0  0  0  0  0  0  0  0  0  0
  117.3120  164.0682  138.3427 F   0  0  0  0  0  0  0  0  0  0  0  0
  119.3345  164.9526  138.1757 F   0  0  0  0  0  0  0  0  0  0  0  0
  119.0762  162.8116  137.6056 F   0  0  0  0  0  0  0  0  0  0  0  0
  119.9206  162.4619  143.9912 C   0  0  0  0  0  0  0  0  0  0  0  0
  120.7914  161.3855  144.0500 F   0  0  0  0  0  0  0  0  0  0  0  0
  120.4121  163.5675  144.6569 F   0  0  0  0  0  0  0  0  0  0  0  0
  118.7604  162.0738  144.6322 F   0  0  0  0  0  0  0  0  0  0  0  0
  1  2  1  0
  2  3  1  0
  4  3  1  6
  4  5  1  0
  5  6  1  1
  6  7  1  0
  8  7  1  6
  8  9  1  0
  9 10  1  0
 10 11  2  0
 10 12  1  0
 12 13  2  0
 13 14  1  0
 14 15  1  6
 14 16  1  0
 16 17  1  6
 17 18  1  0
 18 19  1  0
 19 20  1  6
  1 21  1  6
 21 22  2  0
 21 23  1  0
 23 24  1  0
 24 25  2  0
 25 26  1  0
 26 27  2  0
 27 28  1  0
 28 29  2  0
 29 30  1  0
 30 31  1  0
 30 32  1  0
 30 33  1  0
 26 34  1  0
 34 35  1  0
 34 36  1  0
 34 37  1  0
 19  1  1  0
 29 24  1  0
 19  4  1  0
 16  5  1  0
 14  8  1  0
M  END
$$$$
