
     RDKit          3D

 37 41  0  0  0  0  0  0  0  0999 V2000
  129.4075  137.8219  132.2554 C   0  0  1  0  0  0  0  0  0  0  0  0
  130.3929  136.8618  132.8915 C   0  0  0  0  0  0  0  0  0  0  0  0
  129.5534  135.6635  133.3643 C   0  0  0  0  0  0  0  0  0  0  0  0
  128.4585  135.6913  132.3817 C   0  0  1  0  0  0  0  0  0  0  0  0
  127.2157  134.9299  132.7328 C   0  0  2  0  0  0  0  0  0  0  0  0
  127.4467  133.5449  133.1989 C   0  0  0  0  0  0  0  0  0  0  0  0
  126.9323  132.4374  132.3749 C   0  0  0  0  0  0  0  0  0  0  0  0
  125.7582  132.7260  131.4937 C   0  0  1  0  0  0  0  0  0  0  0  0
  124.6974  131.7623  131.6133 N   0  0  0  0  0  0  0  0  0  0  0  0
  123.6273  131.9384  130.6673 C   0  0  0  0  0  0  0  0  0  0  0  0
  122.9559  130.9768  130.2421 O   0  0  0  0  0  0  0  0  0  0  0  0
  123.4015  133.3132  130.2602 C   0  0  0  0  0  0  0  0  0  0  0  0
  124.1050  134.3225  130.7145 C   0  0  0  0  0  0  0  0  0  0  0  0
  125.1816  134.1032  131.6875 C   0  0  1  0  0  0  0  0  0  0  0  0
  124.5412  134.2391  133.0653 C   0  0  0  0  0  0  0  0  0  0  0  0
  126.3262  135.0597  131.5149 C   0  0  1  0  0  0  0  0  0  0  0  0
  125.9468  136.4743  131.2720 C   0  0  0  0  0  0  0  0  0  0  0  0
  127.1653  137.3598  131.2136 C   0  0  0  0  0  0  0  0  0  0  0  0
  128.0567  137.1752  132.3944 C   0  0  2  0  0  0  0  0  0  0  0  0
  127.3526  137.5574  133.6487 C   0  0  0  0  0  0  0  0  0  0  0  0
  129.5200  139.1252  132.9504 C   0  0  0  0  0  0  0  0  0  0  0  0
  128.8082  139.3355  133.9651 O   0  0  0  0  0  0  0  0  0  0  0  0
  130.3752  140.1760  132.5661 N   0  0  0  0  0  0  0  0  0  0  0  0
  130.6940  141.2934  133.4069 C   0  0  0  0  0  0  0  0  0  0  0  0
  131.2495  141.1249  134.6568 C   0  0  0  0  0  0  0  0  0  0  0  0
  131.5404  142.2205  135.4386 C   0  0  0  0  0  0  0  0  0  0  0  0
  131.2646  143.4780  134.9444 C   0  0  0  0  0  0  0  0  0  0  0  0
  130.7091  143.6532  133.6952 C   0  0  0  0  0  0  0  0  0  0  0  0
  130.4134  142.5455  132.9013 C   0  0  0  0  0  0  0  0  0  0  0  0
  129.8101  142.7170  131.5493 C   0  0  0  0  0  0  0  0  0  0  0  0
  130.7109  142.3507  130.5452 F   0  0  0  0  0  0  0  0  0  0  0  0
  128.7605  141.7971  131.4340 F   0  0  0  0  0  0  0  0  0  0  0  0
  129.2907  143.9615  131.3344 F   0  0  0  0  0  0  0  0  0  0  0  0
  132.1450  142.0756  136.8032 C   0  0  0  0  0  0  0  0  0  0  0  0
  133.0991  141.0707  136.8261 F   0  0  0  0  0  0  0  0  0  0  0  0
  132.6538  143.2877  137.2265 F   0  0  0  0  0  0  0  0  0  0  0  0
  131.1548  141.7081  137.6931 F   0  0  0  0  0  0  0  0  0  0  0  0
  1  2  1  0
  2  3  1  0
  4  3  1  1
  4  5  1  0
  5  6  1  6
  6  7  1  0
  8  7  1  1
  8  9  1  0
  9 10  1  0
 10 11  2  0
 10 12  1  0
 12 13  2  0
 13 14  1  0
 14 15  1  1
 14 16  1  0
 16 17  1  1
 17 18  1  0
 18 19  1  0
 19 20  1  1
  1 21  1  1
 21 22  2  0
 21 23  1  0
 23 24  1  0
 24 25  2  0
 25 26  1  0
 26 27  2  0
 27 28  1  0
 28 29  2  0
 29 30  1  0
 30 31  1  0
 30 32  1  0
 30 33  1  0
 26 34  1  0
 34 35  1  0
 34 36  1  0
 34 37  1  0
 19  1  1  0
 29 24  1  0
 19  4  1  0
 16  5  1  0
 14  8  1  0
M  END
$$$$
