
     RDKit          3D

 37 41  0  0  0  0  0  0  0  0999 V2000
  189.7062  155.3018  126.3618 C   0  0  1  0  0  0  0  0  0  0  0  0
  188.2251  155.6102  126.4554 C   0  0  0  0  0  0  0  0  0  0  0  0
  187.9951  156.8112  125.5231 C   0  0  0  0  0  0  0  0  0  0  0  0
  189.0547  156.5912  124.5263 C   0  0  1  0  0  0  0  0  0  0  0  0
  189.4265  157.7611  123.6657 C   0  0  2  0  0  0  0  0  0  0  0  0
  188.2822  158.4647  123.0457 C   0  0  0  0  0  0  0  0  0  0  0  0
  188.1630  158.4424  121.5775 C   0  0  0  0  0  0  0  0  0  0  0  0
  189.4215  158.2580  120.7899 C   0  0  1  0  0  0  0  0  0  0  0  0
  189.5840  159.2171  119.7307 N   0  0  0  0  0  0  0  0  0  0  0  0
  190.7095  158.9646  118.8700 C   0  0  0  0  0  0  0  0  0  0  0  0
  190.7073  159.2910  117.6660 O   0  0  0  0  0  0  0  0  0  0  0  0
  191.8301  158.3084  119.5185 C   0  0  0  0  0  0  0  0  0  0  0  0
  191.8314  157.9728  120.7863 C   0  0  0  0  0  0  0  0  0  0  0  0
  190.6679  158.2574  121.6343 C   0  0  1  0  0  0  0  0  0  0  0  0
  190.9155  159.6333  122.2449 C   0  0  0  0  0  0  0  0  0  0  0  0
  190.4505  157.2155  122.6935 C   0  0  1  0  0  0  0  0  0  0  0  0
  191.6730  156.7554  123.3990 C   0  0  0  0  0  0  0  0  0  0  0  0
  191.3299  155.7888  124.5036 C   0  0  0  0  0  0  0  0  0  0  0  0
  190.2788  156.3222  125.4167 C   0  0  2  0  0  0  0  0  0  0  0  0
  190.7562  157.5525  126.1050 C   0  0  0  0  0  0  0  0  0  0  0  0
  190.2773  155.3656  127.7270 C   0  0  0  0  0  0  0  0  0  0  0  0
  190.9391  156.3808  128.0614 O   0  0  0  0  0  0  0  0  0  0  0  0
  190.1411  154.3649  128.7086 N   0  0  0  0  0  0  0  0  0  0  0  0
  188.8874  153.7729  129.0758 C   0  0  0  0  0  0  0  0  0  0  0  0
  187.7628  154.5372  129.3000 C   0  0  0  0  0  0  0  0  0  0  0  0
  186.5758  153.9355  129.6538 C   0  0  0  0  0  0  0  0  0  0  0  0
  186.5410  152.5624  129.7768 C   0  0  0  0  0  0  0  0  0  0  0  0
  187.6623  151.7924  129.5540 C   0  0  0  0  0  0  0  0  0  0  0  0
  188.8656  152.3991  129.1957 C   0  0  0  0  0  0  0  0  0  0  0  0
  190.0882  151.5816  128.9536 C   0  0  0  0  0  0  0  0  0  0  0  0
  191.1214  151.9512  129.8194 F   0  0  0  0  0  0  0  0  0  0  0  0
  189.7899  150.2591  129.3050 F   0  0  0  0  0  0  0  0  0  0  0  0
  190.4962  151.5780  127.6505 F   0  0  0  0  0  0  0  0  0  0  0  0
  185.3323  154.7348  129.9055 C   0  0  0  0  0  0  0  0  0  0  0  0
  184.7343  155.1218  128.7168 F   0  0  0  0  0  0  0  0  0  0  0  0
  184.4693  154.0244  130.7166 F   0  0  0  0  0  0  0  0  0  0  0  0
  185.6744  155.8922  130.5772 F   0  0  0  0  0  0  0  0  0  0  0  0
  1  2  1  0
  2  3  1  0
  4  3  1  1
  4  5  1  0
  5  6  1  6
  6  7  1  0
  8  7  1  1
  8  9  1  0
  9 10  1  0
 10 11  2  0
 10 12  1  0
 12 13  2  0
 13 14  1  0
 14 15  1  1
 14 16  1  0
 16 17  1  1
 17 18  1  0
 18 19  1  0
 19 20  1  1
  1 21  1  1
 21 22  2  0
 21 23  1  0
 23 24  1  0
 24 25  2  0
 25 26  1  0
 26 27  2  0
 27 28  1  0
 28 29  2  0
 29 30  1  0
 30 31  1  0
 30 32  1  0
 30 33  1  0
 26 34  1  0
 34 35  1  0
 34 36  1  0
 34 37  1  0
 19  1  1  0
 29 24  1  0
 19  4  1  0
 16  5  1  0
 14  8  1  0
M  END
$$$$
