
     RDKit          3D

 37 41  0  0  0  0  0  0  0  0999 V2000
  115.6808  167.2166  142.3812 C   0  0  1  0  0  0  0  0  0  0  0  0
  114.1748  167.0486  142.4177 C   0  0  0  0  0  0  0  0  0  0  0  0
  113.9218  165.7852  143.2567 C   0  0  0  0  0  0  0  0  0  0  0  0
  115.0896  165.8119  144.1514 C   0  0  1  0  0  0  0  0  0  0  0  0
  115.4288  164.5342  144.8584 C   0  0  2  0  0  0  0  0  0  0  0  0
  114.2877  163.8742  145.5301 C   0  0  0  0  0  0  0  0  0  0  0  0
  114.3146  163.7602  146.9986 C   0  0  0  0  0  0  0  0  0  0  0  0
  115.6556  163.7553  147.6617 C   0  0  1  0  0  0  0  0  0  0  0  0
  115.8271  162.6849  148.6068 N   0  0  0  0  0  0  0  0  0  0  0  0
  117.0501  162.7517  149.3625 C   0  0  0  0  0  0  0  0  0  0  0  0
  117.1336  162.3083  150.5255 O   0  0  0  0  0  0  0  0  0  0  0  0
  118.1603  163.3696  148.6608 C   0  0  0  0  0  0  0  0  0  0  0  0
  118.0707  163.8286  147.4355 C   0  0  0  0  0  0  0  0  0  0  0  0
  116.8082  163.7320  146.6935 C   0  0  1  0  0  0  0  0  0  0  0  0
  116.8614  162.4076  145.9383 C   0  0  0  0  0  0  0  0  0  0  0  0
  116.5903  164.8893  145.7618 C   0  0  1  0  0  0  0  0  0  0  0  0
  117.7771  165.3097  144.9751 C   0  0  0  0  0  0  0  0  0  0  0  0
  117.4229  166.4077  144.0050 C   0  0  0  0  0  0  0  0  0  0  0  0
  116.2415  166.0612  143.1641 C   0  0  2  0  0  0  0  0  0  0  0  0
  116.5287  164.8690  142.3208 C   0  0  0  0  0  0  0  0  0  0  0  0
  116.1075  167.2400  140.9629 C   0  0  0  0  0  0  0  0  0  0  0  0
  117.1667  166.6459  140.6377 O   0  0  0  0  0  0  0  0  0  0  0  0
  115.4146  167.8846  139.9200 N   0  0  0  0  0  0  0  0  0  0  0  0
  113.9981  168.1095  139.9228 C   0  0  0  0  0  0  0  0  0  0  0  0
  113.1057  167.1169  139.5804 C   0  0  0  0  0  0  0  0  0  0  0  0
  111.7519  167.3687  139.5914 C   0  0  0  0  0  0  0  0  0  0  0  0
  111.3160  168.6268  139.9503 C   0  0  0  0  0  0  0  0  0  0  0  0
  112.2033  169.6240  140.2938 C   0  0  0  0  0  0  0  0  0  0  0  0
  113.5748  169.3717  140.2834 C   0  0  0  0  0  0  0  0  0  0  0  0
  114.5481  170.4394  140.6496 C   0  0  0  0  0  0  0  0  0  0  0  0
  114.1149  171.6912  140.2032 F   0  0  0  0  0  0  0  0  0  0  0  0
  114.5548  170.5459  142.0459 F   0  0  0  0  0  0  0  0  0  0  0  0
  115.8275  170.1749  140.2520 F   0  0  0  0  0  0  0  0  0  0  0  0
  110.7518  166.3133  139.2249 C   0  0  0  0  0  0  0  0  0  0  0  0
  111.2876  165.4029  138.3279 F   0  0  0  0  0  0  0  0  0  0  0  0
  110.2709  165.7005  140.3653 F   0  0  0  0  0  0  0  0  0  0  0  0
  109.6803  166.9141  138.5937 F   0  0  0  0  0  0  0  0  0  0  0  0
  1  2  1  0
  2  3  1  0
  4  3  1  6
  4  5  1  0
  5  6  1  1
  6  7  1  0
  8  7  1  6
  8  9  1  0
  9 10  1  0
 10 11  2  0
 10 12  1  0
 12 13  2  0
 13 14  1  0
 14 15  1  6
 14 16  1  0
 16 17  1  6
 17 18  1  0
 18 19  1  0
 19 20  1  6
  1 21  1  6
 21 22  2  0
 21 23  1  0
 23 24  1  0
 24 25  2  0
 25 26  1  0
 26 27  2  0
 27 28  1  0
 28 29  2  0
 29 30  1  0
 30 31  1  0
 30 32  1  0
 30 33  1  0
 26 34  1  0
 34 35  1  0
 34 36  1  0
 34 37  1  0
 19  1  1  0
 29 24  1  0
 19  4  1  0
 16  5  1  0
 14  8  1  0
M  END
$$$$
