
     RDKit          3D

 37 41  0  0  0  0  0  0  0  0999 V2000
  190.4217  160.5613  118.5670 C   0  0  1  0  0  0  0  0  0  0  0  0
  191.1625  161.8336  118.2063 C   0  0  0  0  0  0  0  0  0  0  0  0
  192.4349  161.8279  119.0695 C   0  0  0  0  0  0  0  0  0  0  0  0
  192.6569  160.3812  119.2208 C   0  0  1  0  0  0  0  0  0  0  0  0
  193.5716  159.9498  120.3275 C   0  0  2  0  0  0  0  0  0  0  0  0
  194.8618  160.6717  120.3838 C   0  0  0  0  0  0  0  0  0  0  0  0
  196.0985  159.9084  120.1422 C   0  0  0  0  0  0  0  0  0  0  0  0
  196.0679  158.4419  120.4363 C   0  0  1  0  0  0  0  0  0  0  0  0
  197.1721  157.9924  121.2405 N   0  0  0  0  0  0  0  0  0  0  0  0
  197.2413  156.5646  121.4073 C   0  0  0  0  0  0  0  0  0  0  0  0
  198.3267  155.9684  121.5584 O   0  0  0  0  0  0  0  0  0  0  0  0
  195.9556  155.8913  121.3862 C   0  0  0  0  0  0  0  0  0  0  0  0
  194.8159  156.5221  121.2339 C   0  0  0  0  0  0  0  0  0  0  0  0
  194.7861  157.9811  121.0776 C   0  0  1  0  0  0  0  0  0  0  0  0
  194.6412  158.5545  122.4838 C   0  0  0  0  0  0  0  0  0  0  0  0
  193.6801  158.4476  120.1755 C   0  0  1  0  0  0  0  0  0  0  0  0
  192.3660  157.7881  120.3805 C   0  0  0  0  0  0  0  0  0  0  0  0
  191.3093  158.3990  119.4959 C   0  0  0  0  0  0  0  0  0  0  0  0
  191.2574  159.8841  119.6183 C   0  0  2  0  0  0  0  0  0  0  0  0
  190.8898  160.2843  121.0038 C   0  0  0  0  0  0  0  0  0  0  0  0
  189.0652  160.9339  119.0311 C   0  0  0  0  0  0  0  0  0  0  0  0
  188.8063  160.8743  120.2599 O   0  0  0  0  0  0  0  0  0  0  0  0
  188.0134  161.3600  118.1971 N   0  0  0  0  0  0  0  0  0  0  0  0
  187.4612  162.6836  118.2225 C   0  0  0  0  0  0  0  0  0  0  0  0
  187.1739  163.3266  119.4070 C   0  0  0  0  0  0  0  0  0  0  0  0
  186.6418  164.5966  119.3940 C   0  0  0  0  0  0  0  0  0  0  0  0
  186.4060  165.2028  118.1781 C   0  0  0  0  0  0  0  0  0  0  0  0
  186.6911  164.5650  116.9899 C   0  0  0  0  0  0  0  0  0  0  0  0
  187.2300  163.2788  117.0001 C   0  0  0  0  0  0  0  0  0  0  0  0
  187.5418  162.5738  115.7244 C   0  0  0  0  0  0  0  0  0  0  0  0
  187.1813  163.3493  114.6187 F   0  0  0  0  0  0  0  0  0  0  0  0
  188.9344  162.4572  115.6342 F   0  0  0  0  0  0  0  0  0  0  0  0
  187.0187  161.3145  115.6519 F   0  0  0  0  0  0  0  0  0  0  0  0
  186.3167  165.3269  120.6627 C   0  0  0  0  0  0  0  0  0  0  0  0
  185.6742  164.4984  121.5690 F   0  0  0  0  0  0  0  0  0  0  0  0
  187.4615  165.8900  121.1913 F   0  0  0  0  0  0  0  0  0  0  0  0
  185.4435  166.3571  120.3731 F   0  0  0  0  0  0  0  0  0  0  0  0
  1  2  1  0
  2  3  1  0
  4  3  1  1
  4  5  1  0
  5  6  1  6
  6  7  1  0
  8  7  1  1
  8  9  1  0
  9 10  1  0
 10 11  2  0
 10 12  1  0
 12 13  2  0
 13 14  1  0
 14 15  1  1
 14 16  1  0
 16 17  1  1
 17 18  1  0
 18 19  1  0
 19 20  1  1
  1 21  1  1
 21 22  2  0
 21 23  1  0
 23 24  1  0
 24 25  2  0
 25 26  1  0
 26 27  2  0
 27 28  1  0
 28 29  2  0
 29 30  1  0
 30 31  1  0
 30 32  1  0
 30 33  1  0
 26 34  1  0
 34 35  1  0
 34 36  1  0
 34 37  1  0
 19  1  1  0
 29 24  1  0
 19  4  1  0
 16  5  1  0
 14  8  1  0
M  END
$$$$
