
     RDKit          3D

 37 41  0  0  0  0  0  0  0  0999 V2000
  162.4016  148.6849  126.0414 C   0  0  1  0  0  0  0  0  0  0  0  0
  161.7921  147.4251  125.4592 C   0  0  0  0  0  0  0  0  0  0  0  0
  162.3571  146.2681  126.2997 C   0  0  0  0  0  0  0  0  0  0  0  0
  162.5674  146.9438  127.5897 C   0  0  1  0  0  0  0  0  0  0  0  0
  163.4794  146.2655  128.5673 C   0  0  2  0  0  0  0  0  0  0  0  0
  163.1992  144.8291  128.7845 C   0  0  0  0  0  0  0  0  0  0  0  0
  162.7549  144.4003  130.1220 C   0  0  0  0  0  0  0  0  0  0  0  0
  163.1604  145.2500  131.2846 C   0  0  1  0  0  0  0  0  0  0  0  0
  163.7384  144.5039  132.3697 N   0  0  0  0  0  0  0  0  0  0  0  0
  163.9955  145.2815  133.5530 C   0  0  0  0  0  0  0  0  0  0  0  0
  163.9533  144.7811  134.6951 O   0  0  0  0  0  0  0  0  0  0  0  0
  164.3053  146.6773  133.3026 C   0  0  0  0  0  0  0  0  0  0  0  0
  164.3555  147.1983  132.1002 C   0  0  0  0  0  0  0  0  0  0  0  0
  164.0977  146.3693  130.9169 C   0  0  1  0  0  0  0  0  0  0  0  0
  165.4536  145.8252  130.4777 C   0  0  0  0  0  0  0  0  0  0  0  0
  163.4235  147.1278  129.8102 C   0  0  1  0  0  0  0  0  0  0  0  0
  163.9584  148.4876  129.5481 C   0  0  0  0  0  0  0  0  0  0  0  0
  163.2795  149.1170  128.3585 C   0  0  0  0  0  0  0  0  0  0  0  0
  163.2957  148.2283  127.1614 C   0  0  2  0  0  0  0  0  0  0  0  0
  164.6930  147.9641  126.7224 C   0  0  0  0  0  0  0  0  0  0  0  0
  163.1184  149.3940  124.9563 C   0  0  0  0  0  0  0  0  0  0  0  0
  164.3593  149.5669  125.0603 O   0  0  0  0  0  0  0  0  0  0  0  0
  162.5184  149.9042  123.7888 N   0  0  0  0  0  0  0  0  0  0  0  0
  162.1228  151.2735  123.6281 C   0  0  0  0  0  0  0  0  0  0  0  0
  162.9451  152.3143  124.0015 C   0  0  0  0  0  0  0  0  0  0  0  0
  162.5318  153.6173  123.8354 C   0  0  0  0  0  0  0  0  0  0  0  0
  161.2866  153.8521  123.2913 C   0  0  0  0  0  0  0  0  0  0  0  0
  160.4594  152.8155  122.9158 C   0  0  0  0  0  0  0  0  0  0  0  0
  160.8754  151.4951  123.0830 C   0  0  0  0  0  0  0  0  0  0  0  0
  159.9923  150.3623  122.6848 C   0  0  0  0  0  0  0  0  0  0  0  0
  159.1709  150.7170  121.6109 F   0  0  0  0  0  0  0  0  0  0  0  0
  160.8109  149.3438  122.1811 F   0  0  0  0  0  0  0  0  0  0  0  0
  159.2736  149.8371  123.7203 F   0  0  0  0  0  0  0  0  0  0  0  0
  163.3994  154.7749  124.2300 C   0  0  0  0  0  0  0  0  0  0  0  0
  164.4509  154.9405  123.3426 F   0  0  0  0  0  0  0  0  0  0  0  0
  162.6354  155.9187  124.3528 F   0  0  0  0  0  0  0  0  0  0  0  0
  163.9564  154.5136  125.4666 F   0  0  0  0  0  0  0  0  0  0  0  0
  1  2  1  0
  2  3  1  0
  4  3  1  6
  4  5  1  0
  5  6  1  1
  6  7  1  0
  8  7  1  6
  8  9  1  0
  9 10  1  0
 10 11  2  0
 10 12  1  0
 12 13  2  0
 13 14  1  0
 14 15  1  6
 14 16  1  0
 16 17  1  6
 17 18  1  0
 18 19  1  0
 19 20  1  6
  1 21  1  6
 21 22  2  0
 21 23  1  0
 23 24  1  0
 24 25  2  0
 25 26  1  0
 26 27  2  0
 27 28  1  0
 28 29  2  0
 29 30  1  0
 30 31  1  0
 30 32  1  0
 30 33  1  0
 26 34  1  0
 34 35  1  0
 34 36  1  0
 34 37  1  0
 19  1  1  0
 29 24  1  0
 19  4  1  0
 16  5  1  0
 14  8  1  0
M  END
$$$$
