
     RDKit          3D

 31 35  0  0  0  0  0  0  0  0999 V2000
  166.0852  152.0704  127.5584 C   0  0  1  0  0  0  0  0  0  0  0  0
  167.4384  152.2713  128.1684 C   0  0  1  0  0  0  0  0  0  0  0  0
  167.8470  153.6112  127.6193 C   0  0  0  0  0  0  0  0  0  0  0  0
  166.5128  154.3342  127.3350 C   0  0  0  0  0  0  0  0  0  0  0  0
  165.8752  153.2046  126.5539 C   0  0  1  0  0  0  0  0  0  0  0  0
  166.6071  153.0502  125.2753 C   0  0  0  0  0  0  0  0  0  0  0  0
  164.3886  153.3214  126.3982 C   0  0  0  0  0  0  0  0  0  0  0  0
  163.7999  152.0407  125.8729 C   0  0  0  0  0  0  0  0  0  0  0  0
  164.2817  150.8130  126.5694 C   0  0  2  0  0  0  0  0  0  0  0  0
  163.5999  150.7975  127.9162 C   0  0  0  0  0  0  0  0  0  0  0  0
  165.7915  150.8236  126.8471 C   0  0  2  0  0  0  0  0  0  0  0  0
  166.2235  149.5553  127.5082 C   0  0  0  0  0  0  0  0  0  0  0  0
  165.8192  148.3426  126.6725 C   0  0  0  0  0  0  0  0  0  0  0  0
  164.3420  148.3949  126.5330 C   0  0  2  0  0  0  0  0  0  0  0  0
  163.6836  147.0890  126.1238 C   0  0  1  0  0  0  0  0  0  0  0  0
  164.0784  146.6114  124.7754 C   0  0  0  0  0  0  0  0  0  0  0  0
  164.1248  146.0310  127.1247 C   0  0  0  0  0  0  0  0  0  0  0  0
  163.3259  144.7635  127.0227 C   0  0  0  0  0  0  0  0  0  0  0  0
  161.8671  144.9023  126.9421 C   0  0  2  0  0  0  0  0  0  0  0  0
  161.3736  143.8289  126.1578 O   0  0  0  0  0  0  0  0  0  0  0  0
  161.3361  146.1533  126.3359 C   0  0  0  0  0  0  0  0  0  0  0  0
  160.7246  145.9022  124.9482 C   0  0  0  0  0  0  0  0  0  0  0  0
  160.0990  146.5346  127.1799 C   0  0  0  0  0  0  0  0  0  0  0  0
  162.2242  147.3174  126.3245 C   0  0  2  0  0  0  0  0  0  0  0  0
  161.7653  148.3232  125.2986 C   0  0  0  0  0  0  0  0  0  0  0  0
  162.4403  149.6548  125.4500 C   0  0  0  0  0  0  0  0  0  0  0  0
  163.9118  149.5801  125.7302 C   0  0  1  0  0  0  0  0  0  0  0  0
  164.6184  149.6921  124.4050 C   0  0  0  0  0  0  0  0  0  0  0  0
  167.3267  152.3638  129.6446 C   0  0  0  0  0  0  0  0  0  0  0  0
  168.5692  152.5073  130.4958 C   0  0  0  0  0  0  0  0  0  0  0  0
  166.2062  152.3494  130.3256 C   0  0  0  0  0  0  0  0  0  0  0  0
  1  2  1  6
  2  3  1  0
  3  4  1  0
  4  5  1  0
  5  6  1  6
  5  7  1  0
  7  8  1  0
  8  9  1  0
  9 10  1  1
  9 11  1  0
 11 12  1  1
 12 13  1  0
 14 13  1  6
 14 15  1  0
 15 16  1  6
 15 17  1  0
 17 18  1  0
 18 19  1  0
 19 20  1  6
 19 21  1  0
 21 22  1  0
 21 23  1  0
 21 24  1  0
 24 25  1  6
 25 26  1  0
 26 27  1  0
 27 28  1  6
  2 29  1  1
 29 30  1  0
 29 31  2  0
  5  1  1  0
 27  9  1  0
 11  1  1  0
 27 14  1  0
 24 15  1  0
M  END
$$$$
