
     RDKit          3D

 31 35  0  0  0  0  0  0  0  0999 V2000
  146.7932  164.3022  133.3022 C   0  0  1  0  0  0  0  0  0  0  0  0
  145.8967  164.6277  134.4573 C   0  0  1  0  0  0  0  0  0  0  0  0
  145.4922  163.2646  134.9493 C   0  0  0  0  0  0  0  0  0  0  0  0
  146.6538  162.3410  134.5236 C   0  0  0  0  0  0  0  0  0  0  0  0
  146.7032  162.7917  133.0789 C   0  0  1  0  0  0  0  0  0  0  0  0
  145.4669  162.3325  132.4043 C   0  0  0  0  0  0  0  0  0  0  0  0
  147.9660  162.4252  132.3587 C   0  0  0  0  0  0  0  0  0  0  0  0
  148.0629  163.1446  131.0413 C   0  0  0  0  0  0  0  0  0  0  0  0
  147.7622  164.6036  131.1155 C   0  0  2  0  0  0  0  0  0  0  0  0
  148.9590  165.2477  131.7724 C   0  0  0  0  0  0  0  0  0  0  0  0
  146.5518  164.9313  132.0012 C   0  0  2  0  0  0  0  0  0  0  0  0
  146.2734  166.3992  132.0061 C   0  0  0  0  0  0  0  0  0  0  0  0
  146.0800  166.9197  130.5834 C   0  0  0  0  0  0  0  0  0  0  0  0
  147.3321  166.6168  129.8451 C   0  0  2  0  0  0  0  0  0  0  0  0
  147.5381  167.4105  128.5668 C   0  0  1  0  0  0  0  0  0  0  0  0
  146.5207  167.1426  127.5202 C   0  0  0  0  0  0  0  0  0  0  0  0
  147.4334  168.8841  128.9317 C   0  0  0  0  0  0  0  0  0  0  0  0
  147.9055  169.7915  127.8321 C   0  0  0  0  0  0  0  0  0  0  0  0
  149.1803  169.4498  127.1902 C   0  0  2  0  0  0  0  0  0  0  0  0
  149.1092  169.8698  125.8377 O   0  0  0  0  0  0  0  0  0  0  0  0
  149.5680  168.0132  127.1712 C   0  0  0  0  0  0  0  0  0  0  0  0
  149.4566  167.4088  125.7623 C   0  0  0  0  0  0  0  0  0  0  0  0
  151.0923  167.9881  127.4240 C   0  0  0  0  0  0  0  0  0  0  0  0
  148.9514  167.1434  128.1748 C   0  0  2  0  0  0  0  0  0  0  0  0
  149.0529  165.6979  127.7565 C   0  0  0  0  0  0  0  0  0  0  0  0
  148.7218  164.7477  128.8697 C   0  0  0  0  0  0  0  0  0  0  0  0
  147.5337  165.1434  129.6951 C   0  0  1  0  0  0  0  0  0  0  0  0
  146.3389  164.4331  129.1156 C   0  0  0  0  0  0  0  0  0  0  0  0
  146.6630  165.3215  135.5211 C   0  0  0  0  0  0  0  0  0  0  0  0
  145.9970  165.6768  136.8323 C   0  0  0  0  0  0  0  0  0  0  0  0
  147.9267  165.6641  135.4490 C   0  0  0  0  0  0  0  0  0  0  0  0
  1  2  1  1
  2  3  1  0
  3  4  1  0
  4  5  1  0
  5  6  1  6
  5  7  1  0
  7  8  1  0
  8  9  1  0
  9 10  1  1
  9 11  1  0
 11 12  1  1
 12 13  1  0
 14 13  1  6
 14 15  1  0
 15 16  1  6
 15 17  1  0
 17 18  1  0
 18 19  1  0
 19 20  1  6
 19 21  1  0
 21 22  1  0
 21 23  1  0
 21 24  1  0
 24 25  1  6
 25 26  1  0
 26 27  1  0
 27 28  1  6
  2 29  1  1
 29 30  1  0
 29 31  2  0
  5  1  1  0
 27  9  1  0
 11  1  1  0
 27 14  1  0
 24 15  1  0
M  END
$$$$
