
     RDKit          3D

 31 35  0  0  0  0  0  0  0  0999 V2000
  165.0278  151.3626  126.5237 C   0  0  1  0  0  0  0  0  0  0  0  0
  163.8763  150.4086  126.4350 C   0  0  1  0  0  0  0  0  0  0  0  0
  164.4797  149.2372  125.7087 C   0  0  0  0  0  0  0  0  0  0  0  0
  165.9853  149.3110  126.0423 C   0  0  0  0  0  0  0  0  0  0  0  0
  166.1628  150.7719  125.6857 C   0  0  1  0  0  0  0  0  0  0  0  0
  165.9988  150.9178  124.2207 C   0  0  0  0  0  0  0  0  0  0  0  0
  167.4152  151.3936  126.2266 C   0  0  0  0  0  0  0  0  0  0  0  0
  167.3801  152.8902  126.0802 C   0  0  0  0  0  0  0  0  0  0  0  0
  166.1030  153.5202  126.5236 C   0  0  2  0  0  0  0  0  0  0  0  0
  166.1133  153.4769  128.0326 C   0  0  0  0  0  0  0  0  0  0  0  0
  164.8550  152.7467  126.0754 C   0  0  2  0  0  0  0  0  0  0  0  0
  163.6075  153.4434  126.5118 C   0  0  0  0  0  0  0  0  0  0  0  0
  163.5834  154.8831  126.0026 C   0  0  0  0  0  0  0  0  0  0  0  0
  164.7886  155.5508  126.5561 C   0  0  2  0  0  0  0  0  0  0  0  0
  164.7500  157.0690  126.5456 C   0  0  1  0  0  0  0  0  0  0  0  0
  164.6975  157.6614  125.1861 C   0  0  0  0  0  0  0  0  0  0  0  0
  163.4806  157.4906  127.2712 C   0  0  0  0  0  0  0  0  0  0  0  0
  163.4552  158.9565  127.5966 C   0  0  0  0  0  0  0  0  0  0  0  0
  164.6702  159.5264  128.1905 C   0  0  2  0  0  0  0  0  0  0  0  0
  164.7688  160.8747  127.7626 O   0  0  0  0  0  0  0  0  0  0  0  0
  165.9636  158.8745  127.8490 C   0  0  0  0  0  0  0  0  0  0  0  0
  166.8126  159.7448  126.9085 C   0  0  0  0  0  0  0  0  0  0  0  0
  166.7943  158.8854  129.1519 C   0  0  0  0  0  0  0  0  0  0  0  0
  165.9084  157.4865  127.3860 C   0  0  2  0  0  0  0  0  0  0  0  0
  167.1730  157.1239  126.6483 C   0  0  0  0  0  0  0  0  0  0  0  0
  167.3084  155.6467  126.4213 C   0  0  0  0  0  0  0  0  0  0  0  0
  166.0434  154.9622  125.9962 C   0  0  1  0  0  0  0  0  0  0  0  0
  166.0573  154.9068  124.4913 C   0  0  0  0  0  0  0  0  0  0  0  0
  163.4614  149.9784  127.7926 C   0  0  0  0  0  0  0  0  0  0  0  0
  161.9938  149.8959  128.1509 C   0  0  0  0  0  0  0  0  0  0  0  0
  164.2727  149.6286  128.7615 C   0  0  0  0  0  0  0  0  0  0  0  0
  1  2  1  6
  2  3  1  0
  3  4  1  0
  4  5  1  0
  5  6  1  6
  5  7  1  0
  7  8  1  0
  8  9  1  0
  9 10  1  1
  9 11  1  0
 11 12  1  1
 12 13  1  0
 14 13  1  6
 14 15  1  0
 15 16  1  6
 15 17  1  0
 17 18  1  0
 18 19  1  0
 19 20  1  6
 19 21  1  0
 21 22  1  0
 21 23  1  0
 21 24  1  0
 24 25  1  6
 25 26  1  0
 26 27  1  0
 27 28  1  6
  2 29  1  1
 29 30  1  0
 29 31  2  0
  5  1  1  0
 27  9  1  0
 11  1  1  0
 27 14  1  0
 24 15  1  0
M  END
$$$$
