
     RDKit          3D

 31 35  0  0  0  0  0  0  0  0999 V2000
  174.6672  162.5650  114.5586 C   0  0  1  0  0  0  0  0  0  0  0  0
  174.9075  163.1044  115.9352 C   0  0  1  0  0  0  0  0  0  0  0  0
  174.7107  161.8889  116.7998 C   0  0  0  0  0  0  0  0  0  0  0  0
  175.0479  160.6995  115.8750 C   0  0  0  0  0  0  0  0  0  0  0  0
  174.1646  161.1297  114.7228 C   0  0  1  0  0  0  0  0  0  0  0  0
  172.7509  161.0077  115.1479 C   0  0  0  0  0  0  0  0  0  0  0  0
  174.4728  160.4541  113.4204 C   0  0  0  0  0  0  0  0  0  0  0  0
  173.7616  161.1310  112.2810 C   0  0  0  0  0  0  0  0  0  0  0  0
  173.8795  162.6178  112.2808 C   0  0  2  0  0  0  0  0  0  0  0  0
  175.2886  162.9287  111.8371 C   0  0  0  0  0  0  0  0  0  0  0  0
  173.7152  163.2415  113.6738 C   0  0  2  0  0  0  0  0  0  0  0  0
  173.8023  164.7316  113.6073 C   0  0  0  0  0  0  0  0  0  0  0  0
  172.7787  165.2915  112.6218 C   0  0  0  0  0  0  0  0  0  0  0  0
  173.0790  164.6803  111.3024 C   0  0  2  0  0  0  0  0  0  0  0  0
  172.4848  165.4006  110.1047 C   0  0  1  0  0  0  0  0  0  0  0  0
  171.0010  165.4090  110.0815 C   0  0  0  0  0  0  0  0  0  0  0  0
  172.9434  166.8497  110.1796 C   0  0  0  0  0  0  0  0  0  0  0  0
  172.6795  167.6104  108.9120 C   0  0  0  0  0  0  0  0  0  0  0  0
  173.0551  166.9554  107.6536 C   0  0  2  0  0  0  0  0  0  0  0  0
  172.1463  167.3864  106.6541 O   0  0  0  0  0  0  0  0  0  0  0  0
  173.0402  165.4675  107.6312 C   0  0  0  0  0  0  0  0  0  0  0  0
  171.8709  164.9193  106.7976 C   0  0  0  0  0  0  0  0  0  0  0  0
  174.2699  165.0495  106.7939 C   0  0  0  0  0  0  0  0  0  0  0  0
  173.1442  164.7807  108.9202 C   0  0  2  0  0  0  0  0  0  0  0  0
  172.6515  163.3599  108.8040 C   0  0  0  0  0  0  0  0  0  0  0  0
  173.0147  162.5213  109.9943 C   0  0  0  0  0  0  0  0  0  0  0  0
  172.8369  163.2054  111.3171 C   0  0  1  0  0  0  0  0  0  0  0  0
  171.4705  162.8296  111.8267 C   0  0  0  0  0  0  0  0  0  0  0  0
  176.3091  163.5722  116.0648 C   0  0  0  0  0  0  0  0  0  0  0  0
  176.6023  164.9879  116.5109 C   0  0  0  0  0  0  0  0  0  0  0  0
  177.3778  162.8473  115.8373 C   0  0  0  0  0  0  0  0  0  0  0  0
  1  2  1  1
  2  3  1  0
  3  4  1  0
  4  5  1  0
  5  6  1  1
  5  7  1  0
  7  8  1  0
  8  9  1  0
  9 10  1  6
  9 11  1  0
 11 12  1  6
 12 13  1  0
 14 13  1  1
 14 15  1  0
 15 16  1  6
 15 17  1  0
 17 18  1  0
 18 19  1  0
 19 20  1  6
 19 21  1  0
 21 22  1  0
 21 23  1  0
 21 24  1  0
 24 25  1  6
 25 26  1  0
 26 27  1  0
 27 28  1  1
  2 29  1  6
 29 30  1  0
 29 31  2  0
  5  1  1  0
 27  9  1  0
 11  1  1  0
 27 14  1  0
 24 15  1  0
M  END
$$$$
