
     RDKit          3D

 31 35  0  0  0  0  0  0  0  0999 V2000
  146.4158  169.0515  129.5664 C   0  0  1  0  0  0  0  0  0  0  0  0
  145.1933  169.1303  128.7045 C   0  0  1  0  0  0  0  0  0  0  0  0
  144.1977  169.7998  129.6124 C   0  0  0  0  0  0  0  0  0  0  0  0
  145.0619  170.6256  130.5896 C   0  0  0  0  0  0  0  0  0  0  0  0
  146.0033  169.5018  130.9688 C   0  0  1  0  0  0  0  0  0  0  0  0
  145.2420  168.4985  131.7484 C   0  0  0  0  0  0  0  0  0  0  0  0
  147.2731  169.9530  131.6260 C   0  0  0  0  0  0  0  0  0  0  0  0
  148.2664  168.8265  131.7086 C   0  0  0  0  0  0  0  0  0  0  0  0
  148.4329  168.0611  130.4394 C   0  0  2  0  0  0  0  0  0  0  0  0
  149.2286  168.9487  129.5131 C   0  0  0  0  0  0  0  0  0  0  0  0
  147.1052  167.7686  129.7263 C   0  0  2  0  0  0  0  0  0  0  0  0
  147.3287  166.9669  128.4855 C   0  0  0  0  0  0  0  0  0  0  0  0
  148.0874  165.6794  128.8005 C   0  0  0  0  0  0  0  0  0  0  0  0
  149.3777  166.0845  129.4134 C   0  0  2  0  0  0  0  0  0  0  0  0
  150.4594  165.0184  129.4094 C   0  0  1  0  0  0  0  0  0  0  0  0
  150.1266  163.8189  130.2172 C   0  0  0  0  0  0  0  0  0  0  0  0
  150.6315  164.5592  127.9689 C   0  0  0  0  0  0  0  0  0  0  0  0
  151.8637  163.7249  127.7668 C   0  0  0  0  0  0  0  0  0  0  0  0
  153.1092  164.2245  128.3611 C   0  0  2  0  0  0  0  0  0  0  0  0
  153.8970  163.1017  128.7210 O   0  0  0  0  0  0  0  0  0  0  0  0
  152.9891  165.0700  129.5798 C   0  0  0  0  0  0  0  0  0  0  0  0
  153.4632  164.3284  130.8400 C   0  0  0  0  0  0  0  0  0  0  0  0
  154.0545  166.1788  129.4262 C   0  0  0  0  0  0  0  0  0  0  0  0
  151.7047  165.7362  129.8047 C   0  0  2  0  0  0  0  0  0  0  0  0
  151.5668  166.1458  131.2497 C   0  0  0  0  0  0  0  0  0  0  0  0
  150.4260  167.0937  131.4772 C   0  0  0  0  0  0  0  0  0  0  0  0
  149.1685  166.7454  130.7377 C   0  0  1  0  0  0  0  0  0  0  0  0
  148.3133  165.9390  131.6791 C   0  0  0  0  0  0  0  0  0  0  0  0
  145.4477  170.0038  127.5329 C   0  0  0  0  0  0  0  0  0  0  0  0
  144.3731  170.2100  126.4879 C   0  0  0  0  0  0  0  0  0  0  0  0
  146.5571  170.6635  127.3017 C   0  0  0  0  0  0  0  0  0  0  0  0
  1  2  1  6
  2  3  1  0
  3  4  1  0
  4  5  1  0
  5  6  1  1
  5  7  1  0
  7  8  1  0
  8  9  1  0
  9 10  1  6
  9 11  1  0
 11 12  1  6
 12 13  1  0
 14 13  1  1
 14 15  1  0
 15 16  1  1
 15 17  1  0
 17 18  1  0
 18 19  1  0
 19 20  1  1
 19 21  1  0
 21 22  1  0
 21 23  1  0
 21 24  1  0
 24 25  1  1
 25 26  1  0
 26 27  1  0
 27 28  1  1
  2 29  1  6
 29 30  1  0
 29 31  2  0
  5  1  1  0
 27  9  1  0
 11  1  1  0
 27 14  1  0
 24 15  1  0
M  END
$$$$
