
     RDKit          3D

 31 35  0  0  0  0  0  0  0  0999 V2000
  192.0262  180.6897  132.3550 C   0  0  1  0  0  0  0  0  0  0  0  0
  191.5925  181.1985  133.6954 C   0  0  1  0  0  0  0  0  0  0  0  0
  192.8161  180.9716  134.5410 C   0  0  0  0  0  0  0  0  0  0  0  0
  193.9897  181.0091  133.5385 C   0  0  0  0  0  0  0  0  0  0  0  0
  193.3932  180.0311  132.5482 C   0  0  1  0  0  0  0  0  0  0  0  0
  193.3576  178.6915  133.1794 C   0  0  0  0  0  0  0  0  0  0  0  0
  194.0348  180.0529  131.1934 C   0  0  0  0  0  0  0  0  0  0  0  0
  193.2163  179.2780  130.1974 C   0  0  0  0  0  0  0  0  0  0  0  0
  191.7581  179.5904  130.2263 C   0  0  2  0  0  0  0  0  0  0  0  0
  191.6050  180.9477  129.5835 C   0  0  0  0  0  0  0  0  0  0  0  0
  191.1907  179.7162  131.6472 C   0  0  2  0  0  0  0  0  0  0  0  0
  189.7221  179.9889  131.6153 C   0  0  0  0  0  0  0  0  0  0  0  0
  188.9879  178.9149  130.8152 C   0  0  0  0  0  0  0  0  0  0  0  0
  189.5638  178.9350  129.4469 C   0  0  2  0  0  0  0  0  0  0  0  0
  188.7140  178.2720  128.3769 C   0  0  1  0  0  0  0  0  0  0  0  0
  188.5175  176.8152  128.5800 C   0  0  0  0  0  0  0  0  0  0  0  0
  187.3400  178.9243  128.4270 C   0  0  0  0  0  0  0  0  0  0  0  0
  186.4883  178.5803  127.2390 C   0  0  0  0  0  0  0  0  0  0  0  0
  187.1202  178.6772  125.9180 C   0  0  2  0  0  0  0  0  0  0  0  0
  186.5275  177.6967  125.0825 O   0  0  0  0  0  0  0  0  0  0  0  0
  188.5912  178.4625  125.8511 C   0  0  0  0  0  0  0  0  0  0  0  0
  188.9443  177.1214  125.1881 C   0  0  0  0  0  0  0  0  0  0  0  0
  189.1175  179.4897  124.8236 C   0  0  0  0  0  0  0  0  0  0  0  0
  189.3507  178.6626  127.0868 C   0  0  2  0  0  0  0  0  0  0  0  0
  190.6902  177.9746  127.0021 C   0  0  0  0  0  0  0  0  0  0  0  0
  191.6277  178.3944  128.0961 C   0  0  0  0  0  0  0  0  0  0  0  0
  190.9953  178.5046  129.4515 C   0  0  1  0  0  0  0  0  0  0  0  0
  191.2214  177.1902  130.1509 C   0  0  0  0  0  0  0  0  0  0  0  0
  191.3124  182.6535  133.6251 C   0  0  0  0  0  0  0  0  0  0  0  0
  192.1344  183.6284  134.4393 C   0  0  0  0  0  0  0  0  0  0  0  0
  190.3903  183.2162  132.8818 C   0  0  0  0  0  0  0  0  0  0  0  0
  1  2  1  1
  2  3  1  0
  3  4  1  0
  4  5  1  0
  5  6  1  1
  5  7  1  0
  7  8  1  0
  8  9  1  0
  9 10  1  6
  9 11  1  0
 11 12  1  6
 12 13  1  0
 14 13  1  1
 14 15  1  0
 15 16  1  1
 15 17  1  0
 17 18  1  0
 18 19  1  0
 19 20  1  6
 19 21  1  0
 21 22  1  0
 21 23  1  0
 21 24  1  0
 24 25  1  6
 25 26  1  0
 26 27  1  0
 27 28  1  1
  2 29  1  6
 29 30  1  0
 29 31  2  0
  5  1  1  0
 27  9  1  0
 11  1  1  0
 27 14  1  0
 24 15  1  0
M  END
$$$$
