
     RDKit          3D

 31 35  0  0  0  0  0  0  0  0999 V2000
  173.3174  161.9279  116.8812 C   0  0  1  0  0  0  0  0  0  0  0  0
  172.1927  161.1009  117.4242 C   0  0  1  0  0  0  0  0  0  0  0  0
  172.8667  160.3092  118.5117 C   0  0  0  0  0  0  0  0  0  0  0  0
  174.0600  161.1878  118.9448 C   0  0  0  0  0  0  0  0  0  0  0  0
  174.5999  161.4327  117.5515 C   0  0  1  0  0  0  0  0  0  0  0  0
  175.1266  160.1528  117.0235 C   0  0  0  0  0  0  0  0  0  0  0  0
  175.5623  162.5781  117.4528 C   0  0  0  0  0  0  0  0  0  0  0  0
  175.8269  162.9369  116.0163 C   0  0  0  0  0  0  0  0  0  0  0  0
  174.5997  163.0505  115.1763 C   0  0  2  0  0  0  0  0  0  0  0  0
  173.9337  164.3450  115.5761 C   0  0  0  0  0  0  0  0  0  0  0  0
  173.5769  161.9364  115.4393 C   0  0  2  0  0  0  0  0  0  0  0  0
  172.3892  162.0774  114.5439 C   0  0  0  0  0  0  0  0  0  0  0  0
  172.8154  162.1077  113.0776 C   0  0  0  0  0  0  0  0  0  0  0  0
  173.7375  163.2614  112.9259 C   0  0  2  0  0  0  0  0  0  0  0  0
  173.9422  163.7437  111.5004 C   0  0  1  0  0  0  0  0  0  0  0  0
  174.5894  162.7455  110.6133 C   0  0  0  0  0  0  0  0  0  0  0  0
  172.5646  164.0349  110.9230 C   0  0  0  0  0  0  0  0  0  0  0  0
  172.6240  164.7950  109.6293 C   0  0  0  0  0  0  0  0  0  0  0  0
  173.5219  165.9549  109.5809 C   0  0  2  0  0  0  0  0  0  0  0  0
  174.0064  166.0711  108.2532 O   0  0  0  0  0  0  0  0  0  0  0  0
  174.7150  165.9282  110.4699 C   0  0  0  0  0  0  0  0  0  0  0  0
  176.0156  165.7237  109.6765 C   0  0  0  0  0  0  0  0  0  0  0  0
  174.8731  167.3707  111.0010 C   0  0  0  0  0  0  0  0  0  0  0  0
  174.6573  165.0447  111.6361 C   0  0  2  0  0  0  0  0  0  0  0  0
  176.0450  164.7609  112.1542 C   0  0  0  0  0  0  0  0  0  0  0  0
  176.0374  164.1233  113.5126 C   0  0  0  0  0  0  0  0  0  0  0  0
  175.0030  163.0525  113.6935 C   0  0  1  0  0  0  0  0  0  0  0  0
  175.6734  161.7378  113.3934 C   0  0  0  0  0  0  0  0  0  0  0  0
  171.1585  161.9758  118.0286 C   0  0  0  0  0  0  0  0  0  0  0  0
  169.7738  161.4359  118.3118 C   0  0  0  0  0  0  0  0  0  0  0  0
  171.3296  163.2284  118.3765 C   0  0  0  0  0  0  0  0  0  0  0  0
  1  2  1  6
  2  3  1  0
  3  4  1  0
  4  5  1  0
  5  6  1  6
  5  7  1  0
  7  8  1  0
  8  9  1  0
  9 10  1  1
  9 11  1  0
 11 12  1  6
 12 13  1  0
 14 13  1  6
 14 15  1  0
 15 16  1  6
 15 17  1  0
 17 18  1  0
 18 19  1  0
 19 20  1  6
 19 21  1  0
 21 22  1  0
 21 23  1  0
 21 24  1  0
 24 25  1  6
 25 26  1  0
 26 27  1  0
 27 28  1  6
  2 29  1  1
 29 30  1  0
 29 31  2  0
  5  1  1  0
 27  9  1  0
 11  1  1  0
 27 14  1  0
 24 15  1  0
M  END
$$$$
