
     RDKit          3D

 31 35  0  0  0  0  0  0  0  0999 V2000
  165.3605  152.2883  127.3296 C   0  0  1  0  0  0  0  0  0  0  0  0
  164.5498  151.7544  128.4704 C   0  0  1  0  0  0  0  0  0  0  0  0
  164.1928  150.3717  127.9967 C   0  0  0  0  0  0  0  0  0  0  0  0
  165.3263  149.9949  127.0185 C   0  0  0  0  0  0  0  0  0  0  0  0
  165.2652  151.2652  126.1966 C   0  0  1  0  0  0  0  0  0  0  0  0
  163.9857  151.2769  125.4503 C   0  0  0  0  0  0  0  0  0  0  0  0
  166.4738  151.5096  125.3438 C   0  0  0  0  0  0  0  0  0  0  0  0
  166.4675  152.9077  124.7889 C   0  0  0  0  0  0  0  0  0  0  0  0
  166.1625  153.9656  125.7950 C   0  0  2  0  0  0  0  0  0  0  0  0
  167.4001  154.1051  126.6482 C   0  0  0  0  0  0  0  0  0  0  0  0
  165.0189  153.5885  126.7472 C   0  0  2  0  0  0  0  0  0  0  0  0
  164.7309  154.6987  127.7047 C   0  0  0  0  0  0  0  0  0  0  0  0
  164.4288  155.9957  126.9570 C   0  0  0  0  0  0  0  0  0  0  0  0
  165.6249  156.3001  126.1317 C   0  0  2  0  0  0  0  0  0  0  0  0
  165.7299  157.7360  125.6486 C   0  0  1  0  0  0  0  0  0  0  0  0
  164.6397  158.1437  124.7280 C   0  0  0  0  0  0  0  0  0  0  0  0
  165.6418  158.6303  126.8767 C   0  0  0  0  0  0  0  0  0  0  0  0
  166.0245  160.0537  126.5894 C   0  0  0  0  0  0  0  0  0  0  0  0
  167.2507  160.2681  125.8119 C   0  0  2  0  0  0  0  0  0  0  0  0
  167.0765  161.4496  125.0474 O   0  0  0  0  0  0  0  0  0  0  0  0
  167.6463  159.1967  124.8579 C   0  0  0  0  0  0  0  0  0  0  0  0
  167.4352  159.6248  123.3968 C   0  0  0  0  0  0  0  0  0  0  0  0
  169.1853  159.0970  124.9559 C   0  0  0  0  0  0  0  0  0  0  0  0
  167.1121  157.8556  125.1031 C   0  0  2  0  0  0  0  0  0  0  0  0
  167.1928  157.0169  123.8522 C   0  0  0  0  0  0  0  0  0  0  0  0
  166.9520  155.5593  124.1151 C   0  0  0  0  0  0  0  0  0  0  0  0
  165.8255  155.2741  125.0633 C   0  0  1  0  0  0  0  0  0  0  0  0
  164.5962  155.0345  124.2270 C   0  0  0  0  0  0  0  0  0  0  0  0
  165.3878  151.6498  129.6899 C   0  0  0  0  0  0  0  0  0  0  0  0
  164.7485  151.6945  131.0605 C   0  0  0  0  0  0  0  0  0  0  0  0
  166.6902  151.4992  129.7080 C   0  0  0  0  0  0  0  0  0  0  0  0
  1  2  1  1
  2  3  1  0
  3  4  1  0
  4  5  1  0
  5  6  1  6
  5  7  1  0
  7  8  1  0
  8  9  1  0
  9 10  1  1
  9 11  1  0
 11 12  1  1
 12 13  1  0
 14 13  1  6
 14 15  1  0
 15 16  1  6
 15 17  1  0
 17 18  1  0
 18 19  1  0
 19 20  1  6
 19 21  1  0
 21 22  1  0
 21 23  1  0
 21 24  1  0
 24 25  1  6
 25 26  1  0
 26 27  1  0
 27 28  1  6
  2 29  1  1
 29 30  1  0
 29 31  2  0
  5  1  1  0
 27  9  1  0
 11  1  1  0
 27 14  1  0
 24 15  1  0
M  END
$$$$
