
     RDKit          3D

 31 35  0  0  0  0  0  0  0  0999 V2000
  184.1129  145.0559  125.4773 C   0  0  1  0  0  0  0  0  0  0  0  0
  185.0927  144.0132  125.9203 C   0  0  1  0  0  0  0  0  0  0  0  0
  186.2975  144.8351  126.2899 C   0  0  0  0  0  0  0  0  0  0  0  0
  185.7198  146.2142  126.6747 C   0  0  0  0  0  0  0  0  0  0  0  0
  184.8650  146.3871  125.4369 C   0  0  1  0  0  0  0  0  0  0  0  0
  185.7620  146.5627  124.2713 C   0  0  0  0  0  0  0  0  0  0  0  0
  183.8055  147.4409  125.5584 C   0  0  0  0  0  0  0  0  0  0  0  0
  182.8286  147.3564  124.4178 C   0  0  0  0  0  0  0  0  0  0  0  0
  182.3379  145.9774  124.1312 C   0  0  2  0  0  0  0  0  0  0  0  0
  181.3687  145.6366  125.2374 C   0  0  0  0  0  0  0  0  0  0  0  0
  183.4448  144.9149  124.1810 C   0  0  2  0  0  0  0  0  0  0  0  0
  182.9045  143.5625  123.8474 C   0  0  0  0  0  0  0  0  0  0  0  0
  182.2065  143.5767  122.4890 C   0  0  0  0  0  0  0  0  0  0  0  0
  181.1151  144.5791  122.5815 C   0  0  2  0  0  0  0  0  0  0  0  0
  180.0334  144.4581  121.5224 C   0  0  1  0  0  0  0  0  0  0  0  0
  180.5158  144.6919  120.1386 C   0  0  0  0  0  0  0  0  0  0  0  0
  179.5049  143.0323  121.5815 C   0  0  0  0  0  0  0  0  0  0  0  0
  178.2361  142.8485  120.7994 C   0  0  0  0  0  0  0  0  0  0  0  0
  177.1866  143.8565  120.9895 C   0  0  2  0  0  0  0  0  0  0  0  0
  176.4761  143.9760  119.7681 O   0  0  0  0  0  0  0  0  0  0  0  0
  177.6224  145.2287  121.3658 C   0  0  0  0  0  0  0  0  0  0  0  0
  177.4449  146.2235  120.2075 C   0  0  0  0  0  0  0  0  0  0  0  0
  176.5848  145.7293  122.3957 C   0  0  0  0  0  0  0  0  0  0  0  0
  178.9422  145.3620  121.9856 C   0  0  2  0  0  0  0  0  0  0  0  0
  179.4371  146.7826  121.8765 C   0  0  0  0  0  0  0  0  0  0  0  0
  180.6267  147.0508  122.7510 C   0  0  0  0  0  0  0  0  0  0  0  0
  181.6574  145.9613  122.7536 C   0  0  1  0  0  0  0  0  0  0  0  0
  182.6904  146.3302  121.7217 C   0  0  0  0  0  0  0  0  0  0  0  0
  184.5889  143.3170  127.1293 C   0  0  0  0  0  0  0  0  0  0  0  0
  183.6563  144.0279  128.0854 C   0  0  0  0  0  0  0  0  0  0  0  0
  184.8674  142.0813  127.4679 C   0  0  0  0  0  0  0  0  0  0  0  0
  1  2  1  6
  2  3  1  0
  3  4  1  0
  4  5  1  0
  5  6  1  6
  5  7  1  0
  7  8  1  0
  8  9  1  0
  9 10  1  1
  9 11  1  0
 11 12  1  1
 12 13  1  0
 14 13  1  6
 14 15  1  0
 15 16  1  6
 15 17  1  0
 17 18  1  0
 18 19  1  0
 19 20  1  6
 19 21  1  0
 21 22  1  0
 21 23  1  0
 21 24  1  0
 24 25  1  6
 25 26  1  0
 26 27  1  0
 27 28  1  6
  2 29  1  1
 29 30  1  0
 29 31  2  0
  5  1  1  0
 27  9  1  0
 11  1  1  0
 27 14  1  0
 24 15  1  0
M  END
$$$$
