
     RDKit          3D

 31 35  0  0  0  0  0  0  0  0999 V2000
  190.1634  163.4737  134.8859 C   0  0  1  0  0  0  0  0  0  0  0  0
  191.0214  164.6814  135.1070 C   0  0  1  0  0  0  0  0  0  0  0  0
  192.3604  164.2278  134.5923 C   0  0  0  0  0  0  0  0  0  0  0  0
  192.0241  163.1393  133.5503 C   0  0  0  0  0  0  0  0  0  0  0  0
  191.0908  162.3430  134.4378 C   0  0  1  0  0  0  0  0  0  0  0  0
  191.8908  161.7250  135.5206 C   0  0  0  0  0  0  0  0  0  0  0  0
  190.2087  161.3795  133.7021 C   0  0  0  0  0  0  0  0  0  0  0  0
  189.1275  160.8451  134.6009 C   0  0  0  0  0  0  0  0  0  0  0  0
  188.4203  161.8890  135.3975 C   0  0  2  0  0  0  0  0  0  0  0  0
  187.5200  162.6192  134.4304 C   0  0  0  0  0  0  0  0  0  0  0  0
  189.3639  162.9433  135.9931 C   0  0  2  0  0  0  0  0  0  0  0  0
  188.6072  163.9379  136.8120 C   0  0  0  0  0  0  0  0  0  0  0  0
  187.7946  163.2391  137.9001 C   0  0  0  0  0  0  0  0  0  0  0  0
  186.8709  162.3050  137.2082 C   0  0  2  0  0  0  0  0  0  0  0  0
  185.6889  161.8316  138.0359 C   0  0  1  0  0  0  0  0  0  0  0  0
  186.0682  161.0266  139.2235 C   0  0  0  0  0  0  0  0  0  0  0  0
  184.9700  163.0733  138.5429 C   0  0  0  0  0  0  0  0  0  0  0  0
  183.6205  162.7676  139.1266 C   0  0  0  0  0  0  0  0  0  0  0  0
  182.7480  161.8770  138.3523 C   0  0  2  0  0  0  0  0  0  0  0  0
  181.9509  161.1476  139.2707 O   0  0  0  0  0  0  0  0  0  0  0  0
  183.4086  160.8760  137.4714 C   0  0  0  0  0  0  0  0  0  0  0  0
  183.2675  159.4477  138.0218 C   0  0  0  0  0  0  0  0  0  0  0  0
  182.5540  160.8223  136.1851 C   0  0  0  0  0  0  0  0  0  0  0  0
  184.7860  161.1556  137.0610 C   0  0  2  0  0  0  0  0  0  0  0  0
  185.4663  159.8925  136.5954 C   0  0  0  0  0  0  0  0  0  0  0  0
  186.7585  160.1598  135.8808 C   0  0  0  0  0  0  0  0  0  0  0  0
  187.6188  161.2097  136.5188 C   0  0  1  0  0  0  0  0  0  0  0  0
  188.5928  160.4942  137.4173 C   0  0  0  0  0  0  0  0  0  0  0  0
  190.5385  165.8121  134.2772 C   0  0  0  0  0  0  0  0  0  0  0  0
  191.1380  166.0660  132.9114 C   0  0  0  0  0  0  0  0  0  0  0  0
  189.5868  166.6498  134.6116 C   0  0  0  0  0  0  0  0  0  0  0  0
  1  2  1  1
  2  3  1  0
  3  4  1  0
  4  5  1  0
  5  6  1  1
  5  7  1  0
  7  8  1  0
  8  9  1  0
  9 10  1  6
  9 11  1  0
 11 12  1  6
 12 13  1  0
 14 13  1  1
 14 15  1  0
 15 16  1  1
 15 17  1  0
 17 18  1  0
 18 19  1  0
 19 20  1  1
 19 21  1  0
 21 22  1  0
 21 23  1  0
 21 24  1  0
 24 25  1  1
 25 26  1  0
 26 27  1  0
 27 28  1  1
  2 29  1  6
 29 30  1  0
 29 31  2  0
  5  1  1  0
 27  9  1  0
 11  1  1  0
 27 14  1  0
 24 15  1  0
M  END
$$$$
