
     RDKit          3D

 31 35  0  0  0  0  0  0  0  0999 V2000
  174.9688  162.4921  115.9701 C   0  0  1  0  0  0  0  0  0  0  0  0
  174.7916  163.1103  117.3229 C   0  0  1  0  0  0  0  0  0  0  0  0
  174.5955  161.9085  118.2066 C   0  0  0  0  0  0  0  0  0  0  0  0
  175.3251  160.7649  117.4693 C   0  0  0  0  0  0  0  0  0  0  0  0
  174.6780  160.9980  116.1203 C   0  0  1  0  0  0  0  0  0  0  0  0
  173.2424  160.6483  116.2249 C   0  0  0  0  0  0  0  0  0  0  0  0
  175.3858  160.3426  114.9726 C   0  0  0  0  0  0  0  0  0  0  0  0
  174.8613  160.8486  113.6568 C   0  0  0  0  0  0  0  0  0  0  0  0
  174.7366  162.3327  113.5759 C   0  0  2  0  0  0  0  0  0  0  0  0
  176.1419  162.8669  113.4386 C   0  0  0  0  0  0  0  0  0  0  0  0
  174.1541  162.9647  114.8478 C   0  0  2  0  0  0  0  0  0  0  0  0
  174.0147  164.4444  114.6953 C   0  0  0  0  0  0  0  0  0  0  0  0
  173.1734  164.7866  113.4674 C   0  0  0  0  0  0  0  0  0  0  0  0
  173.8672  164.1928  112.2968 C   0  0  2  0  0  0  0  0  0  0  0  0
  173.4616  164.7598  110.9475 C   0  0  1  0  0  0  0  0  0  0  0  0
  172.0426  164.5116  110.5912 C   0  0  0  0  0  0  0  0  0  0  0  0
  173.6522  166.2679  111.0188 C   0  0  0  0  0  0  0  0  0  0  0  0
  173.5732  166.9293  109.6729 C   0  0  0  0  0  0  0  0  0  0  0  0
  174.3321  166.3073  108.5815 C   0  0  2  0  0  0  0  0  0  0  0  0
  173.6248  166.5418  107.3750 O   0  0  0  0  0  0  0  0  0  0  0  0
  174.5610  164.8392  108.6636 C   0  0  0  0  0  0  0  0  0  0  0  0
  173.7218  164.0703  107.6304 C   0  0  0  0  0  0  0  0  0  0  0  0
  176.0028  164.6117  108.1561 C   0  0  0  0  0  0  0  0  0  0  0  0
  174.4698  164.2237  109.9891 C   0  0  2  0  0  0  0  0  0  0  0  0
  174.2516  162.7363  109.8680 C   0  0  0  0  0  0  0  0  0  0  0  0
  174.4563  162.0128  111.1667 C   0  0  0  0  0  0  0  0  0  0  0  0
  173.8675  162.6995  112.3630 C   0  0  1  0  0  0  0  0  0  0  0  0
  172.4982  162.1111  112.5786 C   0  0  0  0  0  0  0  0  0  0  0  0
  176.0309  163.8166  117.7299 C   0  0  0  0  0  0  0  0  0  0  0  0
  176.9589  163.1999  118.7535 C   0  0  0  0  0  0  0  0  0  0  0  0
  176.4376  164.9718  117.2615 C   0  0  0  0  0  0  0  0  0  0  0  0
  1  2  1  1
  2  3  1  0
  3  4  1  0
  4  5  1  0
  5  6  1  1
  5  7  1  0
  7  8  1  0
  8  9  1  0
  9 10  1  6
  9 11  1  0
 11 12  1  6
 12 13  1  0
 14 13  1  1
 14 15  1  0
 15 16  1  6
 15 17  1  0
 17 18  1  0
 18 19  1  0
 19 20  1  6
 19 21  1  0
 21 22  1  0
 21 23  1  0
 21 24  1  0
 24 25  1  6
 25 26  1  0
 26 27  1  0
 27 28  1  1
  2 29  1  1
 29 30  1  0
 29 31  2  0
  5  1  1  0
 27  9  1  0
 11  1  1  0
 27 14  1  0
 24 15  1  0
M  END
$$$$
