
     RDKit          3D

 31 35  0  0  0  0  0  0  0  0999 V2000
  188.8709  162.1259  136.8856 C   0  0  1  0  0  0  0  0  0  0  0  0
  189.1195  161.1643  135.7644 C   0  0  1  0  0  0  0  0  0  0  0  0
  190.1556  161.8828  134.9433 C   0  0  0  0  0  0  0  0  0  0  0  0
  190.8794  162.7996  135.9529 C   0  0  0  0  0  0  0  0  0  0  0  0
  189.6284  163.4111  136.5480 C   0  0  1  0  0  0  0  0  0  0  0  0
  188.9887  164.2609  135.5171 C   0  0  0  0  0  0  0  0  0  0  0  0
  189.8408  164.0990  137.8631 C   0  0  0  0  0  0  0  0  0  0  0  0
  188.5269  164.4226  138.5199 C   0  0  0  0  0  0  0  0  0  0  0  0
  187.5525  163.2936  138.5318 C   0  0  2  0  0  0  0  0  0  0  0  0
  188.0498  162.3185  139.5715 C   0  0  0  0  0  0  0  0  0  0  0  0
  187.4973  162.5232  137.2050 C   0  0  2  0  0  0  0  0  0  0  0  0
  186.4783  161.4320  137.2612 C   0  0  0  0  0  0  0  0  0  0  0  0
  185.1073  161.9886  137.6397 C   0  0  0  0  0  0  0  0  0  0  0  0
  185.2635  162.6411  138.9642 C   0  0  2  0  0  0  0  0  0  0  0  0
  183.9711  162.8779  139.7258 C   0  0  1  0  0  0  0  0  0  0  0  0
  183.0398  163.8186  139.0550 C   0  0  0  0  0  0  0  0  0  0  0  0
  183.2600  161.5366  139.8311 C   0  0  0  0  0  0  0  0  0  0  0  0
  182.1189  161.5573  140.8071 C   0  0  0  0  0  0  0  0  0  0  0  0
  182.3737  162.1743  142.1142 C   0  0  2  0  0  0  0  0  0  0  0  0
  181.1597  162.7540  142.5623 O   0  0  0  0  0  0  0  0  0  0  0  0
  183.4048  163.2459  142.1702 C   0  0  0  0  0  0  0  0  0  0  0  0
  182.7773  164.6336  142.3788 C   0  0  0  0  0  0  0  0  0  0  0  0
  184.1674  163.0235  143.4957 C   0  0  0  0  0  0  0  0  0  0  0  0
  184.4023  163.2674  141.0986 C   0  0  2  0  0  0  0  0  0  0  0  0
  185.0581  164.6230  141.0131 C   0  0  0  0  0  0  0  0  0  0  0  0
  186.2884  164.6186  140.1540 C   0  0  0  0  0  0  0  0  0  0  0  0
  186.1579  163.8358  138.8814 C   0  0  1  0  0  0  0  0  0  0  0  0
  185.7556  164.8094  137.8051 C   0  0  0  0  0  0  0  0  0  0  0  0
  189.7018  159.9049  136.2889 C   0  0  0  0  0  0  0  0  0  0  0  0
  191.0031  159.9298  137.0603 C   0  0  0  0  0  0  0  0  0  0  0  0
  189.1737  158.7114  136.1625 C   0  0  0  0  0  0  0  0  0  0  0  0
  1  2  1  6
  2  3  1  0
  3  4  1  0
  4  5  1  0
  5  6  1  6
  5  7  1  0
  7  8  1  0
  8  9  1  0
  9 10  1  1
  9 11  1  0
 11 12  1  1
 12 13  1  0
 14 13  1  6
 14 15  1  0
 15 16  1  6
 15 17  1  0
 17 18  1  0
 18 19  1  0
 19 20  1  6
 19 21  1  0
 21 22  1  0
 21 23  1  0
 21 24  1  0
 24 25  1  6
 25 26  1  0
 26 27  1  0
 27 28  1  6
  2 29  1  1
 29 30  1  0
 29 31  2  0
  5  1  1  0
 27  9  1  0
 11  1  1  0
 27 14  1  0
 24 15  1  0
M  END
$$$$
