
     RDKit          3D

 31 35  0  0  0  0  0  0  0  0999 V2000
  188.6368  162.8137  137.5869 C   0  0  1  0  0  0  0  0  0  0  0  0
  188.8131  162.7127  136.1029 C   0  0  1  0  0  0  0  0  0  0  0  0
  190.0038  163.5987  135.8557 C   0  0  0  0  0  0  0  0  0  0  0  0
  190.7867  163.5720  137.1861 C   0  0  0  0  0  0  0  0  0  0  0  0
  189.6061  163.8894  138.0796 C   0  0  1  0  0  0  0  0  0  0  0  0
  189.1808  165.2831  137.8132 C   0  0  0  0  0  0  0  0  0  0  0  0
  189.8279  163.5837  139.5305 C   0  0  0  0  0  0  0  0  0  0  0  0
  188.5363  163.6509  140.2986 C   0  0  0  0  0  0  0  0  0  0  0  0
  187.4007  162.9310  139.6533 C   0  0  2  0  0  0  0  0  0  0  0  0
  187.6657  161.4586  139.8554 C   0  0  0  0  0  0  0  0  0  0  0  0
  187.3219  163.1539  138.1364 C   0  0  2  0  0  0  0  0  0  0  0  0
  186.1450  162.4437  137.5510 C   0  0  0  0  0  0  0  0  0  0  0  0
  184.8531  162.8708  138.2448 C   0  0  0  0  0  0  0  0  0  0  0  0
  185.0134  162.5411  139.6835 C   0  0  2  0  0  0  0  0  0  0  0  0
  183.7220  162.4737  140.4801 C   0  0  1  0  0  0  0  0  0  0  0  0
  182.9977  163.7661  140.5648 C   0  0  0  0  0  0  0  0  0  0  0  0
  182.8064  161.4888  139.7679 C   0  0  0  0  0  0  0  0  0  0  0  0
  181.6155  161.0978  140.5950 C   0  0  0  0  0  0  0  0  0  0  0  0
  181.8687  160.7351  141.9943 C   0  0  2  0  0  0  0  0  0  0  0  0
  180.7300  161.1115  142.7510 O   0  0  0  0  0  0  0  0  0  0  0  0
  183.0464  161.3596  142.6557 C   0  0  0  0  0  0  0  0  0  0  0  0
  182.6278  162.4107  143.6964 C   0  0  0  0  0  0  0  0  0  0  0  0
  183.6688  160.2515  143.5347 C   0  0  0  0  0  0  0  0  0  0  0  0
  184.1092  161.8654  141.7848 C   0  0  2  0  0  0  0  0  0  0  0  0
  184.9711  162.8585  142.5236 C   0  0  0  0  0  0  0  0  0  0  0  0
  186.2441  163.1758  141.7952 C   0  0  0  0  0  0  0  0  0  0  0  0
  186.0854  163.3686  140.3163 C   0  0  1  0  0  0  0  0  0  0  0  0
  185.9164  164.8464  140.0808 C   0  0  0  0  0  0  0  0  0  0  0  0
  189.1546  161.3206  135.7209 C   0  0  0  0  0  0  0  0  0  0  0  0
  188.1149  160.2259  135.8199 C   0  0  0  0  0  0  0  0  0  0  0  0
  190.3178  160.9190  135.2681 C   0  0  0  0  0  0  0  0  0  0  0  0
  1  2  1  6
  2  3  1  0
  3  4  1  0
  4  5  1  0
  5  6  1  1
  5  7  1  0
  7  8  1  0
  8  9  1  0
  9 10  1  6
  9 11  1  0
 11 12  1  6
 12 13  1  0
 14 13  1  6
 14 15  1  0
 15 16  1  1
 15 17  1  0
 17 18  1  0
 18 19  1  0
 19 20  1  1
 19 21  1  0
 21 22  1  0
 21 23  1  0
 21 24  1  0
 24 25  1  1
 25 26  1  0
 26 27  1  0
 27 28  1  1
  2 29  1  1
 29 30  1  0
 29 31  2  0
  5  1  1  0
 27  9  1  0
 11  1  1  0
 27 14  1  0
 24 15  1  0
M  END
$$$$
