
     RDKit          3D

 31 35  0  0  0  0  0  0  0  0999 V2000
  109.5010  163.9946  157.2291 C   0  0  1  0  0  0  0  0  0  0  0  0
  110.0935  162.7968  156.5526 C   0  0  1  0  0  0  0  0  0  0  0  0
  111.5451  163.1746  156.4348 C   0  0  0  0  0  0  0  0  0  0  0  0
  111.7802  164.1670  157.5940 C   0  0  0  0  0  0  0  0  0  0  0  0
  110.5962  165.0606  157.2899 C   0  0  1  0  0  0  0  0  0  0  0  0
  110.8571  165.7618  156.0115 C   0  0  0  0  0  0  0  0  0  0  0  0
  110.1997  165.9675  158.4160 C   0  0  0  0  0  0  0  0  0  0  0  0
  108.8633  166.6043  158.1495 C   0  0  0  0  0  0  0  0  0  0  0  0
  107.8121  165.6532  157.6857 C   0  0  2  0  0  0  0  0  0  0  0  0
  107.4031  164.8529  158.8987 C   0  0  0  0  0  0  0  0  0  0  0  0
  108.3212  164.6416  156.6493 C   0  0  2  0  0  0  0  0  0  0  0  0
  107.2189  163.7426  156.1919 C   0  0  0  0  0  0  0  0  0  0  0  0
  106.0461  164.5556  155.6477 C   0  0  0  0  0  0  0  0  0  0  0  0
  105.5911  165.4382  156.7515 C   0  0  2  0  0  0  0  0  0  0  0  0
  104.1933  166.0095  156.5895 C   0  0  1  0  0  0  0  0  0  0  0  0
  104.0434  166.9147  155.4232 C   0  0  0  0  0  0  0  0  0  0  0  0
  103.2506  164.8346  156.3732 C   0  0  0  0  0  0  0  0  0  0  0  0
  101.8038  165.2193  156.4913 C   0  0  0  0  0  0  0  0  0  0  0  0
  101.4289  166.0499  157.6417 C   0  0  2  0  0  0  0  0  0  0  0  0
  100.3482  166.8772  157.2434 O   0  0  0  0  0  0  0  0  0  0  0  0
  102.4740  166.9513  158.1983 C   0  0  0  0  0  0  0  0  0  0  0  0
  102.1851  168.4273  157.8808 C   0  0  0  0  0  0  0  0  0  0  0  0
  102.2961  166.9005  159.7325 C   0  0  0  0  0  0  0  0  0  0  0  0
  103.8691  166.6083  157.9157 C   0  0  2  0  0  0  0  0  0  0  0  0
  104.7600  167.8090  158.1142 C   0  0  0  0  0  0  0  0  0  0  0  0
  106.2171  167.4514  158.1413 C   0  0  0  0  0  0  0  0  0  0  0  0
  106.6331  166.4497  157.1056 C   0  0  1  0  0  0  0  0  0  0  0  0
  107.1380  167.2274  155.9189 C   0  0  0  0  0  0  0  0  0  0  0  0
  109.9705  161.6028  157.4240 C   0  0  0  0  0  0  0  0  0  0  0  0
  108.9128  160.5583  157.1415 C   0  0  0  0  0  0  0  0  0  0  0  0
  110.7302  161.3336  158.4582 C   0  0  0  0  0  0  0  0  0  0  0  0
  1  2  1  6
  2  3  1  0
  3  4  1  0
  4  5  1  0
  5  6  1  6
  5  7  1  0
  7  8  1  0
  8  9  1  0
  9 10  1  1
  9 11  1  0
 11 12  1  1
 12 13  1  0
 14 13  1  6
 14 15  1  0
 15 16  1  6
 15 17  1  0
 17 18  1  0
 18 19  1  0
 19 20  1  6
 19 21  1  0
 21 22  1  0
 21 23  1  0
 21 24  1  0
 24 25  1  6
 25 26  1  0
 26 27  1  0
 27 28  1  6
  2 29  1  1
 29 30  1  0
 29 31  2  0
  5  1  1  0
 27  9  1  0
 11  1  1  0
 27 14  1  0
 24 15  1  0
M  END
$$$$
