
     RDKit          3D

 31 35  0  0  0  0  0  0  0  0999 V2000
  188.2090  137.6284  126.7146 C   0  0  1  0  0  0  0  0  0  0  0  0
  187.9223  138.8692  127.5031 C   0  0  1  0  0  0  0  0  0  0  0  0
  189.1989  139.6514  127.3541 C   0  0  0  0  0  0  0  0  0  0  0  0
  189.7977  139.1609  126.0183 C   0  0  0  0  0  0  0  0  0  0  0  0
  189.6857  137.6813  126.3197 C   0  0  1  0  0  0  0  0  0  0  0  0
  190.6355  137.3537  127.4082 C   0  0  0  0  0  0  0  0  0  0  0  0
  189.8029  136.7938  125.1171 C   0  0  0  0  0  0  0  0  0  0  0  0
  189.3993  135.3830  125.4475 C   0  0  0  0  0  0  0  0  0  0  0  0
  188.1217  135.2728  126.2092 C   0  0  2  0  0  0  0  0  0  0  0  0
  187.0164  135.5606  125.2221 C   0  0  0  0  0  0  0  0  0  0  0  0
  187.9879  136.3161  127.3275 C   0  0  2  0  0  0  0  0  0  0  0  0
  186.7107  136.1331  128.0808 C   0  0  0  0  0  0  0  0  0  0  0  0
  186.6028  134.7117  128.6290 C   0  0  0  0  0  0  0  0  0  0  0  0
  186.6681  133.7983  127.4602 C   0  0  2  0  0  0  0  0  0  0  0  0
  186.1540  132.3910  127.7087 C   0  0  1  0  0  0  0  0  0  0  0  0
  186.9428  131.6287  128.7081 C   0  0  0  0  0  0  0  0  0  0  0  0
  184.7389  132.5199  128.2534 C   0  0  0  0  0  0  0  0  0  0  0  0
  183.9991  131.2131  128.2680 C   0  0  0  0  0  0  0  0  0  0  0  0
  184.0722  130.3946  127.0520 C   0  0  2  0  0  0  0  0  0  0  0  0
  184.0048  129.0332  127.4429 O   0  0  0  0  0  0  0  0  0  0  0  0
  185.2905  130.5370  126.2093 C   0  0  0  0  0  0  0  0  0  0  0  0
  186.1971  129.2991  126.3002 C   0  0  0  0  0  0  0  0  0  0  0  0
  184.7959  130.4800  124.7464 C   0  0  0  0  0  0  0  0  0  0  0  0
  186.0605  131.7738  126.3549 C   0  0  2  0  0  0  0  0  0  0  0  0
  187.4624  131.5893  125.8300 C   0  0  0  0  0  0  0  0  0  0  0  0
  188.1962  132.8882  125.6677 C   0  0  0  0  0  0  0  0  0  0  0  0
  188.0060  133.8575  126.7962 C   0  0  1  0  0  0  0  0  0  0  0  0
  189.1549  133.6550  127.7486 C   0  0  0  0  0  0  0  0  0  0  0  0
  186.8110  139.6279  126.8789 C   0  0  0  0  0  0  0  0  0  0  0  0
  186.8452  139.9532  125.4017 C   0  0  0  0  0  0  0  0  0  0  0  0
  185.7383  140.0558  127.4997 C   0  0  0  0  0  0  0  0  0  0  0  0
  1  2  1  1
  2  3  1  0
  3  4  1  0
  4  5  1  0
  5  6  1  1
  5  7  1  0
  7  8  1  0
  8  9  1  0
  9 10  1  6
  9 11  1  0
 11 12  1  6
 12 13  1  0
 14 13  1  1
 14 15  1  0
 15 16  1  1
 15 17  1  0
 17 18  1  0
 18 19  1  0
 19 20  1  1
 19 21  1  0
 21 22  1  0
 21 23  1  0
 21 24  1  0
 24 25  1  1
 25 26  1  0
 26 27  1  0
 27 28  1  1
  2 29  1  6
 29 30  1  0
 29 31  2  0
  5  1  1  0
 27  9  1  0
 11  1  1  0
 27 14  1  0
 24 15  1  0
M  END
$$$$
