
     RDKit          3D

 31 35  0  0  0  0  0  0  0  0999 V2000
  147.2998  169.3008  133.9084 C   0  0  1  0  0  0  0  0  0  0  0  0
  147.8494  170.5272  134.5699 C   0  0  1  0  0  0  0  0  0  0  0  0
  146.6832  171.0032  135.3928 C   0  0  0  0  0  0  0  0  0  0  0  0
  145.8614  169.7263  135.6712 C   0  0  0  0  0  0  0  0  0  0  0  0
  145.8066  169.2480  134.2356 C   0  0  1  0  0  0  0  0  0  0  0  0
  144.9640  170.1892  133.4621 C   0  0  0  0  0  0  0  0  0  0  0  0
  145.4203  167.8081  134.0769 C   0  0  0  0  0  0  0  0  0  0  0  0
  145.6652  167.3367  132.6697 C   0  0  0  0  0  0  0  0  0  0  0  0
  147.0005  167.7112  132.1209 C   0  0  2  0  0  0  0  0  0  0  0  0
  148.0033  166.8102  132.8005 C   0  0  0  0  0  0  0  0  0  0  0  0
  147.4139  169.1513  132.4554 C   0  0  2  0  0  0  0  0  0  0  0  0
  148.7379  169.4834  131.8479 C   0  0  0  0  0  0  0  0  0  0  0  0
  148.7179  169.2455  130.3394 C   0  0  0  0  0  0  0  0  0  0  0  0
  148.3832  167.8130  130.1385 C   0  0  2  0  0  0  0  0  0  0  0  0
  148.7270  167.2536  128.7691 C   0  0  1  0  0  0  0  0  0  0  0  0
  147.9720  167.8795  127.6553 C   0  0  0  0  0  0  0  0  0  0  0  0
  150.2031  167.5337  128.5275 C   0  0  0  0  0  0  0  0  0  0  0  0
  150.7533  166.7830  127.3490 C   0  0  0  0  0  0  0  0  0  0  0  0
  150.4181  165.3573  127.2542 C   0  0  2  0  0  0  0  0  0  0  0  0
  150.3469  165.0208  125.8785 O   0  0  0  0  0  0  0  0  0  0  0  0
  149.1354  164.9186  127.8680 C   0  0  0  0  0  0  0  0  0  0  0  0
  148.0864  164.5563  126.8044 C   0  0  0  0  0  0  0  0  0  0  0  0
  149.4314  163.5503  128.5223 C   0  0  0  0  0  0  0  0  0  0  0  0
  148.5659  165.7781  128.9076 C   0  0  2  0  0  0  0  0  0  0  0  0
  147.0976  165.4856  129.0904 C   0  0  0  0  0  0  0  0  0  0  0  0
  146.5338  166.1049  130.3356 C   0  0  0  0  0  0  0  0  0  0  0  0
  146.9938  167.5081  130.5978 C   0  0  1  0  0  0  0  0  0  0  0  0
  145.9557  168.4284  130.0117 C   0  0  0  0  0  0  0  0  0  0  0  0
  148.9676  170.1643  135.4744 C   0  0  0  0  0  0  0  0  0  0  0  0
  150.1663  171.0775  135.6094 C   0  0  0  0  0  0  0  0  0  0  0  0
  149.0243  169.0876  136.2208 C   0  0  0  0  0  0  0  0  0  0  0  0
  1  2  1  6
  2  3  1  0
  3  4  1  0
  4  5  1  0
  5  6  1  6
  5  7  1  0
  7  8  1  0
  8  9  1  0
  9 10  1  1
  9 11  1  0
 11 12  1  1
 12 13  1  0
 14 13  1  6
 14 15  1  0
 15 16  1  6
 15 17  1  0
 17 18  1  0
 18 19  1  0
 19 20  1  6
 19 21  1  0
 21 22  1  0
 21 23  1  0
 21 24  1  0
 24 25  1  6
 25 26  1  0
 26 27  1  0
 27 28  1  6
  2 29  1  1
 29 30  1  0
 29 31  2  0
  5  1  1  0
 27  9  1  0
 11  1  1  0
 27 14  1  0
 24 15  1  0
M  END
$$$$
