
     RDKit          3D

 31 35  0  0  0  0  0  0  0  0999 V2000
  132.6095  164.0669  153.9811 C   0  0  1  0  0  0  0  0  0  0  0  0
  131.2749  164.0320  154.6602 C   0  0  1  0  0  0  0  0  0  0  0  0
  130.4479  164.9479  153.7994 C   0  0  0  0  0  0  0  0  0  0  0  0
  131.1164  164.8781  152.4095 C   0  0  0  0  0  0  0  0  0  0  0  0
  132.5284  165.1371  152.8914 C   0  0  1  0  0  0  0  0  0  0  0  0
  132.6058  166.5333  153.3799 C   0  0  0  0  0  0  0  0  0  0  0  0
  133.5961  164.7738  151.9036 C   0  0  0  0  0  0  0  0  0  0  0  0
  134.9543  164.7864  152.5499 C   0  0  0  0  0  0  0  0  0  0  0  0
  135.0172  164.0752  153.8594 C   0  0  2  0  0  0  0  0  0  0  0  0
  134.9718  162.6003  153.5406 C   0  0  0  0  0  0  0  0  0  0  0  0
  133.8115  164.3610  154.7657 C   0  0  2  0  0  0  0  0  0  0  0  0
  133.9474  163.6563  156.0761 C   0  0  0  0  0  0  0  0  0  0  0  0
  135.2602  164.0314  156.7605 C   0  0  0  0  0  0  0  0  0  0  0  0
  136.3511  163.6438  155.8308 C   0  0  2  0  0  0  0  0  0  0  0  0
  137.7268  163.5205  156.4623 C   0  0  1  0  0  0  0  0  0  0  0  0
  138.2574  164.7956  157.0052 C   0  0  0  0  0  0  0  0  0  0  0  0
  137.6000  162.5513  157.6286 C   0  0  0  0  0  0  0  0  0  0  0  0
  138.9308  162.1053  158.1627 C   0  0  0  0  0  0  0  0  0  0  0  0
  139.9358  161.6879  157.1780 C   0  0  2  0  0  0  0  0  0  0  0  0
  141.2135  162.0123  157.7005 O   0  0  0  0  0  0  0  0  0  0  0  0
  139.8587  162.3037  155.8255 C   0  0  0  0  0  0  0  0  0  0  0  0
  141.0023  163.3024  155.5853 C   0  0  0  0  0  0  0  0  0  0  0  0
  140.1930  161.1700  154.8301 C   0  0  0  0  0  0  0  0  0  0  0  0
  138.5678  162.8640  155.4211 C   0  0  2  0  0  0  0  0  0  0  0  0
  138.7468  163.8394  154.2847 C   0  0  0  0  0  0  0  0  0  0  0  0
  137.4491  164.2091  153.6282 C   0  0  0  0  0  0  0  0  0  0  0  0
  136.3180  164.4617  154.5802 C   0  0  1  0  0  0  0  0  0  0  0  0
  136.2825  165.9451  154.8376 C   0  0  0  0  0  0  0  0  0  0  0  0
  130.7057  162.6635  154.6017 C   0  0  0  0  0  0  0  0  0  0  0  0
  130.0575  162.0543  155.8256 C   0  0  0  0  0  0  0  0  0  0  0  0
  130.6894  161.8904  153.5427 C   0  0  0  0  0  0  0  0  0  0  0  0
  1  2  1  1
  2  3  1  0
  3  4  1  0
  4  5  1  0
  5  6  1  1
  5  7  1  0
  7  8  1  0
  8  9  1  0
  9 10  1  6
  9 11  1  0
 11 12  1  1
 12 13  1  0
 14 13  1  1
 14 15  1  0
 15 16  1  1
 15 17  1  0
 17 18  1  0
 18 19  1  0
 19 20  1  1
 19 21  1  0
 21 22  1  0
 21 23  1  0
 21 24  1  0
 24 25  1  6
 25 26  1  0
 26 27  1  0
 27 28  1  1
  2 29  1  6
 29 30  1  0
 29 31  2  0
  5  1  1  0
 27  9  1  0
 11  1  1  0
 27 14  1  0
 24 15  1  0
M  END
$$$$
