
     RDKit          3D

 31 35  0  0  0  0  0  0  0  0999 V2000
  188.4269  162.7277  137.0852 C   0  0  1  0  0  0  0  0  0  0  0  0
  188.3215  162.6491  135.5930 C   0  0  1  0  0  0  0  0  0  0  0  0
  189.6667  163.1526  135.1451 C   0  0  0  0  0  0  0  0  0  0  0  0
  190.6104  162.8322  136.3242 C   0  0  0  0  0  0  0  0  0  0  0  0
  189.7410  163.4429  137.4031 C   0  0  1  0  0  0  0  0  0  0  0  0
  189.7165  164.9109  137.2071 C   0  0  0  0  0  0  0  0  0  0  0  0
  190.0929  163.0170  138.7968 C   0  0  0  0  0  0  0  0  0  0  0  0
  189.0237  163.4280  139.7717 C   0  0  0  0  0  0  0  0  0  0  0  0
  187.6353  163.1087  139.3302 C   0  0  2  0  0  0  0  0  0  0  0  0
  187.4750  161.6161  139.4901 C   0  0  0  0  0  0  0  0  0  0  0  0
  187.3823  163.4163  137.8476 C   0  0  2  0  0  0  0  0  0  0  0  0
  185.9678  163.1156  137.4720 C   0  0  0  0  0  0  0  0  0  0  0  0
  184.9943  163.8734  138.3724 C   0  0  0  0  0  0  0  0  0  0  0  0
  185.2793  163.4435  139.7646 C   0  0  2  0  0  0  0  0  0  0  0  0
  184.1745  163.7246  140.7681 C   0  0  1  0  0  0  0  0  0  0  0  0
  183.8956  165.1682  140.9691 C   0  0  0  0  0  0  0  0  0  0  0  0
  182.9024  163.0904  140.2244 C   0  0  0  0  0  0  0  0  0  0  0  0
  181.7998  163.0318  141.2422 C   0  0  0  0  0  0  0  0  0  0  0  0
  182.1558  162.5446  142.5801 C   0  0  2  0  0  0  0  0  0  0  0  0
  181.3214  163.2057  143.5168 O   0  0  0  0  0  0  0  0  0  0  0  0
  183.5576  162.7597  143.0307 C   0  0  0  0  0  0  0  0  0  0  0  0
  183.6487  163.8373  144.1232 C   0  0  0  0  0  0  0  0  0  0  0  0
  183.9524  161.4766  143.7960 C   0  0  0  0  0  0  0  0  0  0  0  0
  184.5673  162.9680  141.9910 C   0  0  2  0  0  0  0  0  0  0  0  0
  185.7955  163.6246  142.5698 C   0  0  0  0  0  0  0  0  0  0  0  0
  186.9692  163.5841  141.6357 C   0  0  0  0  0  0  0  0  0  0  0  0
  186.6380  163.8849  140.2042 C   0  0  1  0  0  0  0  0  0  0  0  0
  186.8849  165.3557  139.9951 C   0  0  0  0  0  0  0  0  0  0  0  0
  188.1625  161.2381  135.1641 C   0  0  0  0  0  0  0  0  0  0  0  0
  188.6468  160.7965  133.8004 C   0  0  0  0  0  0  0  0  0  0  0  0
  187.6333  160.2785  135.8842 C   0  0  0  0  0  0  0  0  0  0  0  0
  1  2  1  6
  2  3  1  0
  3  4  1  0
  4  5  1  0
  5  6  1  1
  5  7  1  0
  7  8  1  0
  8  9  1  0
  9 10  1  6
  9 11  1  0
 11 12  1  6
 12 13  1  0
 14 13  1  6
 14 15  1  0
 15 16  1  1
 15 17  1  0
 17 18  1  0
 18 19  1  0
 19 20  1  1
 19 21  1  0
 21 22  1  0
 21 23  1  0
 21 24  1  0
 24 25  1  1
 25 26  1  0
 26 27  1  0
 27 28  1  1
  2 29  1  1
 29 30  1  0
 29 31  2  0
  5  1  1  0
 27  9  1  0
 11  1  1  0
 27 14  1  0
 24 15  1  0
M  END
$$$$
