
     RDKit          3D

 31 35  0  0  0  0  0  0  0  0999 V2000
  147.1691  168.7628  134.2688 C   0  0  1  0  0  0  0  0  0  0  0  0
  147.0105  170.1329  134.8531 C   0  0  1  0  0  0  0  0  0  0  0  0
  146.2400  169.8605  136.1164 C   0  0  0  0  0  0  0  0  0  0  0  0
  146.6070  168.4070  136.4858 C   0  0  0  0  0  0  0  0  0  0  0  0
  146.3261  167.8132  135.1215 C   0  0  1  0  0  0  0  0  0  0  0  0
  144.8671  167.8806  134.8748 C   0  0  0  0  0  0  0  0  0  0  0  0
  146.9220  166.4550  134.9027 C   0  0  0  0  0  0  0  0  0  0  0  0
  146.8484  166.0618  133.4527 C   0  0  0  0  0  0  0  0  0  0  0  0
  147.2964  167.1235  132.5058 C   0  0  2  0  0  0  0  0  0  0  0  0
  148.8013  167.1759  132.6126 C   0  0  0  0  0  0  0  0  0  0  0  0
  146.7857  168.5233  132.8751 C   0  0  2  0  0  0  0  0  0  0  0  0
  147.2305  169.5376  131.8723 C   0  0  0  0  0  0  0  0  0  0  0  0
  146.7922  169.1379  130.4649 C   0  0  0  0  0  0  0  0  0  0  0  0
  147.4018  167.8125  130.1893 C   0  0  2  0  0  0  0  0  0  0  0  0
  147.4651  167.4212  128.7232 C   0  0  1  0  0  0  0  0  0  0  0  0
  146.1354  167.2594  128.0845 C   0  0  0  0  0  0  0  0  0  0  0  0
  148.1848  168.5436  127.9897 C   0  0  0  0  0  0  0  0  0  0  0  0
  148.5810  168.1655  126.5915 C   0  0  0  0  0  0  0  0  0  0  0  0
  149.2265  166.8595  126.4140 C   0  0  2  0  0  0  0  0  0  0  0  0
  148.8673  166.3706  125.1322 O   0  0  0  0  0  0  0  0  0  0  0  0
  148.8795  165.7917  127.3907 C   0  0  0  0  0  0  0  0  0  0  0  0
  148.0002  164.7011  126.7583 C   0  0  0  0  0  0  0  0  0  0  0  0
  150.1980  165.0354  127.6693 C   0  0  0  0  0  0  0  0  0  0  0  0
  148.3481  166.2206  128.6859 C   0  0  2  0  0  0  0  0  0  0  0  0
  147.6191  165.0858  129.3609 C   0  0  0  0  0  0  0  0  0  0  0  0
  147.3228  165.3649  130.8053 C   0  0  0  0  0  0  0  0  0  0  0  0
  146.8393  166.7567  131.0854 C   0  0  1  0  0  0  0  0  0  0  0  0
  145.3340  166.7090  131.0803 C   0  0  0  0  0  0  0  0  0  0  0  0
  148.3367  170.6971  135.2040 C   0  0  0  0  0  0  0  0  0  0  0  0
  148.5665  172.1918  135.1554 C   0  0  0  0  0  0  0  0  0  0  0  0
  149.3818  170.0039  135.5870 C   0  0  0  0  0  0  0  0  0  0  0  0
  1  2  1  1
  2  3  1  0
  3  4  1  0
  4  5  1  0
  5  6  1  6
  5  7  1  0
  7  8  1  0
  8  9  1  0
  9 10  1  6
  9 11  1  0
 11 12  1  6
 12 13  1  0
 14 13  1  6
 14 15  1  0
 15 16  1  6
 15 17  1  0
 17 18  1  0
 18 19  1  0
 19 20  1  6
 19 21  1  0
 21 22  1  0
 21 23  1  0
 21 24  1  0
 24 25  1  6
 25 26  1  0
 26 27  1  0
 27 28  1  1
  2 29  1  1
 29 30  1  0
 29 31  2  0
  5  1  1  0
 27  9  1  0
 11  1  1  0
 27 14  1  0
 24 15  1  0
M  END
$$$$
