
     RDKit          3D

 31 35  0  0  0  0  0  0  0  0999 V2000
  165.6447  155.0336  127.1248 C   0  0  1  0  0  0  0  0  0  0  0  0
  166.3482  155.9698  128.0587 C   0  0  1  0  0  0  0  0  0  0  0  0
  166.7604  157.0919  127.1451 C   0  0  0  0  0  0  0  0  0  0  0  0
  165.7280  157.0537  125.9978 C   0  0  0  0  0  0  0  0  0  0  0  0
  165.8558  155.5728  125.7091 C   0  0  1  0  0  0  0  0  0  0  0  0
  167.2000  155.3228  125.1393 C   0  0  0  0  0  0  0  0  0  0  0  0
  164.7313  155.0006  124.8990 C   0  0  0  0  0  0  0  0  0  0  0  0
  164.7781  153.4972  124.8993 C   0  0  0  0  0  0  0  0  0  0  0  0
  164.9772  152.8899  126.2469 C   0  0  2  0  0  0  0  0  0  0  0  0
  163.6631  153.0395  126.9750 C   0  0  0  0  0  0  0  0  0  0  0  0
  166.0287  153.6200  127.0942 C   0  0  2  0  0  0  0  0  0  0  0  0
  166.2150  152.9459  128.4145 C   0  0  0  0  0  0  0  0  0  0  0  0
  166.5754  151.4738  128.2262 C   0  0  0  0  0  0  0  0  0  0  0  0
  165.4603  150.8563  127.4648 C   0  0  2  0  0  0  0  0  0  0  0  0
  165.3892  149.3409  127.5352 C   0  0  1  0  0  0  0  0  0  0  0  0
  166.5581  148.6538  126.9323 C   0  0  0  0  0  0  0  0  0  0  0  0
  165.3527  148.9614  129.0085 C   0  0  0  0  0  0  0  0  0  0  0  0
  164.9867  147.5219  129.2303 C   0  0  0  0  0  0  0  0  0  0  0  0
  163.8379  147.0049  128.4773 C   0  0  2  0  0  0  0  0  0  0  0  0
  164.0736  145.6306  128.2193 O   0  0  0  0  0  0  0  0  0  0  0  0
  163.5437  147.6414  127.1648 C   0  0  0  0  0  0  0  0  0  0  0  0
  163.8886  146.7137  125.9887 C   0  0  0  0  0  0  0  0  0  0  0  0
  162.0033  147.7288  127.0783 C   0  0  0  0  0  0  0  0  0  0  0  0
  164.0638  148.9929  126.9481 C   0  0  2  0  0  0  0  0  0  0  0  0
  164.1093  149.3126  125.4748 C   0  0  0  0  0  0  0  0  0  0  0  0
  164.3367  150.7711  125.2049 C   0  0  0  0  0  0  0  0  0  0  0  0
  165.3707  151.4139  126.0808 C   0  0  1  0  0  0  0  0  0  0  0  0
  166.6757  151.3633  125.3309 C   0  0  0  0  0  0  0  0  0  0  0  0
  165.3994  156.4913  129.0727 C   0  0  0  0  0  0  0  0  0  0  0  0
  165.9017  157.3333  130.2251 C   0  0  0  0  0  0  0  0  0  0  0  0
  164.1016  156.3039  129.0684 C   0  0  0  0  0  0  0  0  0  0  0  0
  1  2  1  1
  2  3  1  0
  3  4  1  0
  4  5  1  0
  5  6  1  6
  5  7  1  0
  7  8  1  0
  8  9  1  0
  9 10  1  1
  9 11  1  0
 11 12  1  1
 12 13  1  0
 14 13  1  6
 14 15  1  0
 15 16  1  6
 15 17  1  0
 17 18  1  0
 18 19  1  0
 19 20  1  6
 19 21  1  0
 21 22  1  0
 21 23  1  0
 21 24  1  0
 24 25  1  6
 25 26  1  0
 26 27  1  0
 27 28  1  6
  2 29  1  1
 29 30  1  0
 29 31  2  0
  5  1  1  0
 27  9  1  0
 11  1  1  0
 27 14  1  0
 24 15  1  0
M  END
$$$$
