
     RDKit          3D

 31 35  0  0  0  0  0  0  0  0999 V2000
  132.7779  139.4293  130.3743 C   0  0  1  0  0  0  0  0  0  0  0  0
  134.1818  139.8611  130.6679 C   0  0  1  0  0  0  0  0  0  0  0  0
  133.9753  141.1382  131.4361 C   0  0  0  0  0  0  0  0  0  0  0  0
  132.5832  140.9774  132.0840 C   0  0  0  0  0  0  0  0  0  0  0  0
  131.8582  140.5674  130.8195 C   0  0  1  0  0  0  0  0  0  0  0  0
  131.8188  141.7326  129.9057 C   0  0  0  0  0  0  0  0  0  0  0  0
  130.5231  139.9259  131.0515 C   0  0  0  0  0  0  0  0  0  0  0  0
  130.0023  139.2948  129.7894 C   0  0  0  0  0  0  0  0  0  0  0  0
  131.0023  138.4600  129.0630 C   0  0  2  0  0  0  0  0  0  0  0  0
  131.1514  137.1889  129.8638 C   0  0  0  0  0  0  0  0  0  0  0  0
  132.3967  139.0989  128.9987 C   0  0  2  0  0  0  0  0  0  0  0  0
  133.3445  138.2397  128.2269 C   0  0  0  0  0  0  0  0  0  0  0  0
  132.7996  137.9495  126.8300 C   0  0  0  0  0  0  0  0  0  0  0  0
  131.4931  137.2690  127.0154 C   0  0  2  0  0  0  0  0  0  0  0  0
  130.9806  136.5101  125.8038 C   0  0  1  0  0  0  0  0  0  0  0  0
  130.6869  137.3723  124.6323 C   0  0  0  0  0  0  0  0  0  0  0  0
  132.0754  135.5389  125.3866 C   0  0  0  0  0  0  0  0  0  0  0  0
  131.6014  134.5198  124.3906 C   0  0  0  0  0  0  0  0  0  0  0  0
  130.3247  133.8548  124.6768 C   0  0  2  0  0  0  0  0  0  0  0  0
  129.7066  133.5541  123.4365 O   0  0  0  0  0  0  0  0  0  0  0  0
  129.3272  134.6151  125.4777 C   0  0  0  0  0  0  0  0  0  0  0  0
  128.1365  135.0753  124.6213 C   0  0  0  0  0  0  0  0  0  0  0  0
  128.6759  133.5818  126.4243 C   0  0  0  0  0  0  0  0  0  0  0  0
  129.8349  135.7043  126.3142 C   0  0  2  0  0  0  0  0  0  0  0  0
  128.7222  136.6556  126.6771 C   0  0  0  0  0  0  0  0  0  0  0  0
  129.1075  137.6079  127.7710 C   0  0  0  0  0  0  0  0  0  0  0  0
  130.4878  138.1804  127.6424 C   0  0  1  0  0  0  0  0  0  0  0  0
  130.3522  139.5002  126.9300 C   0  0  0  0  0  0  0  0  0  0  0  0
  134.8506  138.8686  131.5442 C   0  0  0  0  0  0  0  0  0  0  0  0
  135.8969  137.9340  130.9778 C   0  0  0  0  0  0  0  0  0  0  0  0
  134.6318  138.7171  132.8282 C   0  0  0  0  0  0  0  0  0  0  0  0
  1  2  1  6
  2  3  1  0
  3  4  1  0
  4  5  1  0
  5  6  1  6
  5  7  1  0
  7  8  1  0
  8  9  1  0
  9 10  1  1
  9 11  1  0
 11 12  1  1
 12 13  1  0
 14 13  1  6
 14 15  1  0
 15 16  1  6
 15 17  1  0
 17 18  1  0
 18 19  1  0
 19 20  1  6
 19 21  1  0
 21 22  1  0
 21 23  1  0
 21 24  1  0
 24 25  1  6
 25 26  1  0
 26 27  1  0
 27 28  1  6
  2 29  1  1
 29 30  1  0
 29 31  2  0
  5  1  1  0
 27  9  1  0
 11  1  1  0
 27 14  1  0
 24 15  1  0
M  END
$$$$
