
     RDKit          3D

 65 74  0  0  0  0  0  0  0  0999 V2000
  209.6027  136.9043  135.0229 C   0  0  0  0  0  0  0  0  0  0  0  0
  210.4300  136.7415  136.2624 C   0  0  0  0  0  0  0  0  0  0  0  0
  211.5681  135.8314  136.0987 C   0  0  0  0  0  0  0  0  0  0  0  0
  212.8403  136.2980  135.7611 C   0  0  0  0  0  0  0  0  0  0  0  0
  213.3215  137.6719  135.5113 C   0  0  0  0  0  0  0  0  0  0  0  0
  214.7352  137.5099  135.2277 N   0  0  0  0  0  0  0  0  0  0  0  0
  215.0934  136.2220  135.2705 C   0  0  0  0  0  0  0  0  0  0  0  0
  216.4217  135.8552  135.0227 C   0  0  0  0  0  0  0  0  0  0  0  0
  217.3684  136.8006  134.7354 C   0  0  0  0  0  0  0  0  0  0  0  0
  216.9841  138.1230  134.6949 C   0  0  0  0  0  0  0  0  0  0  0  0
  217.9979  139.1898  134.3830 C   0  0  0  0  0  0  0  0  0  0  0  0
  218.9096  138.6857  133.4466 O   0  0  0  0  0  0  0  0  0  0  0  0
  219.2041  137.3377  133.3243 C   0  0  0  0  0  0  0  0  0  0  0  0
  219.7812  136.8179  132.3449 O   0  0  0  0  0  0  0  0  0  0  0  0
  218.7853  136.4678  134.4697 C   0  0  1  0  0  0  0  0  0  0  0  0
  219.5713  136.8553  135.5583 O   0  0  0  0  0  0  0  0  0  0  0  0
  218.9387  135.0136  134.1504 C   0  0  0  0  0  0  0  0  0  0  0  0
  220.3603  134.7109  133.7226 C   0  0  0  0  0  0  0  0  0  0  0  0
  215.6723  138.4387  134.9436 C   0  0  0  0  0  0  0  0  0  0  0  0
  215.3423  139.6630  134.9006 O   0  0  0  0  0  0  0  0  0  0  0  0
  213.9023  135.4359  135.6081 C   0  0  0  0  0  0  0  0  0  0  0  0
  213.7551  134.1195  135.7762 N   0  0  0  0  0  0  0  0  0  0  0  0
  212.5364  133.6250  136.1041 C   0  0  0  0  0  0  0  0  0  0  0  0
  212.4041  132.2573  136.2758 C   0  0  0  0  0  0  0  0  0  0  0  0
  211.1699  131.7088  136.6139 C   0  0  0  0  0  0  0  0  0  0  0  0
  210.0673  132.5158  136.7818 C   0  0  0  0  0  0  0  0  0  0  0  0
  208.8592  131.9321  137.1188 O   0  0  0  0  0  0  0  0  0  0  0  0
  208.0680  131.3628  136.1316 C   0  0  0  0  0  0  0  0  0  0  0  0
  208.5549  130.3815  135.5167 O   0  0  0  0  0  0  0  0  0  0  0  0
  206.7635  131.8684  135.8306 N   0  0  0  0  0  0  0  0  0  0  0  0
  205.9279  131.2542  134.8521 C   0  0  0  0  0  0  0  0  0  0  0  0
  204.4819  131.4762  135.2120 C   0  0  0  0  0  0  0  0  0  0  0  0
  204.2265  131.5589  136.6948 C   0  0  0  0  0  0  0  0  0  0  0  0
  202.8174  132.0559  136.9092 C   0  0  0  0  0  0  0  0  0  0  0  0
  201.8480  131.4972  135.9217 C   0  0  0  0  0  0  0  0  0  0  0  0
  200.7001  132.4140  135.8018 N   0  0  0  0  0  0  0  0  0  0  0  0
  200.3419  133.3207  136.7108 C   0  0  0  0  0  0  0  0  0  0  0  0
  199.2468  133.9993  136.2297 C   0  0  0  0  0  0  0  0  0  0  0  0
  198.9370  133.4886  135.0004 C   0  0  0  0  0  0  0  0  0  0  0  0
  197.9657  133.7537  134.0599 C   0  0  0  0  0  0  0  0  0  0  0  0
  197.8958  133.0315  132.8544 C   0  0  0  0  0  0  0  0  0  0  0  0
  198.8445  132.0526  132.6658 C   0  0  0  0  0  0  0  0  0  0  0  0
  199.8278  131.7558  133.5708 C   0  0  0  0  0  0  0  0  0  0  0  0
  199.8760  132.4801  134.7497 C   0  0  0  0  0  0  0  0  0  0  0  0
  196.8919  133.4078  131.9563 N   0  0  0  0  0  0  0  0  0  0  0  0
  195.7486  132.6649  131.8382 C   0  0  0  0  0  0  0  0  0  0  0  0
  195.4214  131.6454  132.5025 O   0  0  0  0  0  0  0  0  0  0  0  0
  195.0123  133.2102  130.8764 N   0  0  0  0  0  0  0  0  0  0  0  0
  195.6457  134.2478  130.4017 N   0  0  0  0  0  0  0  0  0  0  0  0
  196.8507  134.3896  131.0837 C   0  0  0  0  0  0  0  0  0  0  0  0
  197.8082  135.4315  130.7304 C   0  0  0  0  0  0  0  0  0  0  0  0
  198.1546  136.3787  131.7144 C   0  0  0  0  0  0  0  0  0  0  0  0
  199.0736  137.3743  131.5031 C   0  0  0  0  0  0  0  0  0  0  0  0
  199.3969  138.3557  132.5593 C   0  0  0  0  0  0  0  0  0  0  0  0
  200.1222  137.6395  133.6923 C   0  0  0  0  0  0  0  0  0  0  0  0
  198.1981  139.0518  133.1391 C   0  0  0  0  0  0  0  0  0  0  0  0
  199.6952  137.4688  130.2863 C   0  0  0  0  0  0  0  0  0  0  0  0
  200.6392  138.4599  130.0085 O   0  0  0  0  0  0  0  0  0  0  0  0
  199.3946  136.5719  129.2985 C   0  0  0  0  0  0  0  0  0  0  0  0
  198.4462  135.5580  129.5428 C   0  0  0  0  0  0  0  0  0  0  0  0
  198.1867  134.6668  128.5000 O   0  0  0  0  0  0  0  0  0  0  0  0
  205.1266  132.5526  137.4064 C   0  0  0  0  0  0  0  0  0  0  0  0
  206.2667  133.0327  136.5328 C   0  0  0  0  0  0  0  0  0  0  0  0
  210.2442  133.8798  136.6004 C   0  0  0  0  0  0  0  0  0  0  0  0
  211.4420  134.4695  136.2668 C   0  0  0  0  0  0  0  0  0  0  0  0
  1  2  1  0
  2  3  1  0
  3  4  2  0
  4  5  1  0
  5  6  1  0
  6  7  1  0
  7  8  2  0
  8  9  1  0
  9 10  2  0
 10 11  1  0
 11 12  1  0
 12 13  1  0
 13 14  2  0
 13 15  1  0
 15 16  1  1
 15 17  1  0
 17 18  1  0
 10 19  1  0
 19 20  2  0
  7 21  1  0
 21 22  2  0
 22 23  1  0
 23 24  2  0
 24 25  1  0
 25 26  2  0
 26 27  1  0
 27 28  1  0
 28 29  2  0
 28 30  1  0
 30 31  1  0
 31 32  1  0
 32 33  1  0
 33 34  1  0
 34 35  1  0
 35 36  1  0
 36 37  1  0
 37 38  2  0
 38 39  1  0
 39 40  2  0
 40 41  1  0
 41 42  2  0
 42 43  1  0
 43 44  2  0
 41 45  1  0
 45 46  1  0
 46 47  2  0
 46 48  1  0
 48 49  1  0
 49 50  2  0
 50 51  1  0
 51 52  2  0
 52 53  1  0
 53 54  1  0
 54 55  1  0
 54 56  1  0
 53 57  2  0
 57 58  1  0
 57 59  1  0
 59 60  2  0
 60 61  1  0
 33 62  1  0
 62 63  1  0
 26 64  1  0
 64 65  2  0
 65  3  1  0
 21  4  1  0
 65 23  1  0
 19  6  1  0
 63 30  1  0
 15  9  1  0
 44 36  1  0
 50 45  1  0
 60 51  1  0
 44 39  1  0
M  END
$$$$
