
     RDKit          3D

 65 74  0  0  0  0  0  0  0  0999 V2000
  190.7463  168.0289  147.0162 C   0  0  0  0  0  0  0  0  0  0  0  0
  191.1758  169.3445  146.4398 C   0  0  0  0  0  0  0  0  0  0  0  0
  192.5742  169.3690  145.9992 C   0  0  0  0  0  0  0  0  0  0  0  0
  193.6077  169.7599  146.8532 C   0  0  0  0  0  0  0  0  0  0  0  0
  193.5709  170.1983  148.2632 C   0  0  0  0  0  0  0  0  0  0  0  0
  194.9610  170.4456  148.5974 N   0  0  0  0  0  0  0  0  0  0  0  0
  195.7593  170.2180  147.5486 C   0  0  0  0  0  0  0  0  0  0  0  0
  197.1422  170.4014  147.6675 C   0  0  0  0  0  0  0  0  0  0  0  0
  197.6961  170.8128  148.8491 C   0  0  0  0  0  0  0  0  0  0  0  0
  196.8610  171.0432  149.9204 C   0  0  0  0  0  0  0  0  0  0  0  0
  197.4347  171.4956  151.2354 C   0  0  0  0  0  0  0  0  0  0  0  0
  198.5207  172.3443  150.9856 O   0  0  0  0  0  0  0  0  0  0  0  0
  199.2913  172.2721  149.8368 C   0  0  0  0  0  0  0  0  0  0  0  0
  200.0745  173.1636  149.4440 O   0  0  0  0  0  0  0  0  0  0  0  0
  199.1502  171.0182  149.0295 C   0  0  1  0  0  0  0  0  0  0  0  0
  199.6761  169.9897  149.8161 O   0  0  0  0  0  0  0  0  0  0  0  0
  199.8398  171.1270  147.7056 C   0  0  0  0  0  0  0  0  0  0  0  0
  199.9203  172.5747  147.2661 C   0  0  0  0  0  0  0  0  0  0  0  0
  195.5119  170.8515  149.7607 C   0  0  0  0  0  0  0  0  0  0  0  0
  194.7630  171.0701  150.7611 O   0  0  0  0  0  0  0  0  0  0  0  0
  194.9173  169.7813  146.4302 C   0  0  0  0  0  0  0  0  0  0  0  0
  195.2485  169.4294  145.1854 N   0  0  0  0  0  0  0  0  0  0  0  0
  194.2756  169.0437  144.3242 C   0  0  0  0  0  0  0  0  0  0  0  0
  194.6390  168.6809  143.0381 C   0  0  0  0  0  0  0  0  0  0  0  0
  193.6707  168.2777  142.1227 C   0  0  0  0  0  0  0  0  0  0  0  0
  192.3424  168.2341  142.4819 C   0  0  0  0  0  0  0  0  0  0  0  0
  191.4112  167.8267  141.5436 O   0  0  0  0  0  0  0  0  0  0  0  0
  191.6596  166.7053  140.7656 C   0  0  0  0  0  0  0  0  0  0  0  0
  192.7043  166.7247  140.0681 O   0  0  0  0  0  0  0  0  0  0  0  0
  190.7706  165.5839  140.7595 N   0  0  0  0  0  0  0  0  0  0  0  0
  189.5484  165.5911  141.4937 C   0  0  0  0  0  0  0  0  0  0  0  0
  188.5405  164.7083  140.8048 C   0  0  0  0  0  0  0  0  0  0  0  0
  188.6944  164.6581  139.3067 C   0  0  0  0  0  0  0  0  0  0  0  0
  187.8265  163.5433  138.7750 C   0  0  0  0  0  0  0  0  0  0  0  0
  186.4445  163.5645  139.3377 C   0  0  0  0  0  0  0  0  0  0  0  0
  185.6298  162.5446  138.6530 N   0  0  0  0  0  0  0  0  0  0  0  0
  185.6126  162.3302  137.3376 C   0  0  0  0  0  0  0  0  0  0  0  0
  184.7572  161.2832  137.0860 C   0  0  0  0  0  0  0  0  0  0  0  0
  184.2459  160.8563  138.2794 C   0  0  0  0  0  0  0  0  0  0  0  0
  183.3585  159.8712  138.6544 C   0  0  0  0  0  0  0  0  0  0  0  0
  183.0112  159.6720  140.0031 C   0  0  0  0  0  0  0  0  0  0  0  0
  183.6023  160.5081  140.9225 C   0  0  0  0  0  0  0  0  0  0  0  0
  184.4896  161.4983  140.5964 C   0  0  0  0  0  0  0  0  0  0  0  0
  184.8157  161.6751  139.2626 C   0  0  0  0  0  0  0  0  0  0  0  0
  182.1291  158.6209  140.2739 N   0  0  0  0  0  0  0  0  0  0  0  0
  182.6027  157.3937  140.6513 C   0  0  0  0  0  0  0  0  0  0  0  0
  183.8011  157.0602  140.8531 O   0  0  0  0  0  0  0  0  0  0  0  0
  181.5595  156.5808  140.7753 N   0  0  0  0  0  0  0  0  0  0  0  0
  180.4735  157.2477  140.4943 N   0  0  0  0  0  0  0  0  0  0  0  0
  180.8204  158.5567  140.1729 C   0  0  0  0  0  0  0  0  0  0  0  0
  179.8181  159.5294  139.7530 C   0  0  0  0  0  0  0  0  0  0  0  0
  178.6380  159.0510  139.1495 C   0  0  0  0  0  0  0  0  0  0  0  0
  177.6139  159.8730  138.7547 C   0  0  0  0  0  0  0  0  0  0  0  0
  176.3991  159.3297  138.1125 C   0  0  0  0  0  0  0  0  0  0  0  0
  175.3243  160.4102  138.0977 C   0  0  0  0  0  0  0  0  0  0  0  0
  175.8325  158.1175  138.7960 C   0  0  0  0  0  0  0  0  0  0  0  0
  177.7235  161.2245  138.9479 C   0  0  0  0  0  0  0  0  0  0  0  0
  176.7164  162.1141  138.5674 O   0  0  0  0  0  0  0  0  0  0  0  0
  178.8488  161.7383  139.5313 C   0  0  0  0  0  0  0  0  0  0  0  0
  179.8863  160.8703  139.9280 C   0  0  0  0  0  0  0  0  0  0  0  0
  181.0063  161.4513  140.5257 O   0  0  0  0  0  0  0  0  0  0  0  0
  190.1067  164.3309  138.8569 C   0  0  0  0  0  0  0  0  0  0  0  0
  191.1089  164.4055  139.9898 C   0  0  0  0  0  0  0  0  0  0  0  0
  192.0223  168.6057  143.7797 C   0  0  0  0  0  0  0  0  0  0  0  0
  192.9416  169.0105  144.7204 C   0  0  0  0  0  0  0  0  0  0  0  0
  1  2  1  0
  2  3  1  0
  3  4  2  0
  4  5  1  0
  5  6  1  0
  6  7  1  0
  7  8  2  0
  8  9  1  0
  9 10  2  0
 10 11  1  0
 11 12  1  0
 12 13  1  0
 13 14  2  0
 13 15  1  0
 15 16  1  1
 15 17  1  0
 17 18  1  0
 10 19  1  0
 19 20  2  0
  7 21  1  0
 21 22  2  0
 22 23  1  0
 23 24  2  0
 24 25  1  0
 25 26  2  0
 26 27  1  0
 27 28  1  0
 28 29  2  0
 28 30  1  0
 30 31  1  0
 31 32  1  0
 32 33  1  0
 33 34  1  0
 34 35  1  0
 35 36  1  0
 36 37  1  0
 37 38  2  0
 38 39  1  0
 39 40  2  0
 40 41  1  0
 41 42  2  0
 42 43  1  0
 43 44  2  0
 41 45  1  0
 45 46  1  0
 46 47  2  0
 46 48  1  0
 48 49  1  0
 49 50  2  0
 50 51  1  0
 51 52  2  0
 52 53  1  0
 53 54  1  0
 54 55  1  0
 54 56  1  0
 53 57  2  0
 57 58  1  0
 57 59  1  0
 59 60  2  0
 60 61  1  0
 33 62  1  0
 62 63  1  0
 26 64  1  0
 64 65  2  0
 65  3  1  0
 21  4  1  0
 65 23  1  0
 19  6  1  0
 63 30  1  0
 15  9  1  0
 44 36  1  0
 50 45  1  0
 60 51  1  0
 44 39  1  0
M  END
$$$$
