
     RDKit          3D

 65 74  0  0  0  0  0  0  0  0999 V2000
  176.4786  147.7836  131.3725 C   0  0  0  0  0  0  0  0  0  0  0  0
  177.3456  147.7198  130.1512 C   0  0  0  0  0  0  0  0  0  0  0  0
  177.2668  146.4422  129.4358 C   0  0  0  0  0  0  0  0  0  0  0  0
  177.0333  145.2383  130.1039 C   0  0  0  0  0  0  0  0  0  0  0  0
  176.8254  144.9648  131.5404 C   0  0  0  0  0  0  0  0  0  0  0  0
  176.6138  143.5308  131.6047 N   0  0  0  0  0  0  0  0  0  0  0  0
  176.6963  142.9741  130.3914 C   0  0  0  0  0  0  0  0  0  0  0  0
  176.5218  141.5931  130.2404 C   0  0  0  0  0  0  0  0  0  0  0  0
  176.2655  140.7961  131.3228 C   0  0  0  0  0  0  0  0  0  0  0  0
  176.1835  141.3841  132.5661 C   0  0  0  0  0  0  0  0  0  0  0  0
  175.9024  140.5393  133.7787 C   0  0  0  0  0  0  0  0  0  0  0  0
  176.5323  139.2984  133.6197 O   0  0  0  0  0  0  0  0  0  0  0  0
  176.8000  138.7365  132.3821 C   0  0  0  0  0  0  0  0  0  0  0  0
  177.5911  137.7895  132.1829 O   0  0  0  0  0  0  0  0  0  0  0  0
  176.0695  139.3334  131.2185 C   0  0  1  0  0  0  0  0  0  0  0  0
  174.7197  139.0253  131.4090 O   0  0  0  0  0  0  0  0  0  0  0  0
  176.5879  138.8195  129.9118 C   0  0  0  0  0  0  0  0  0  0  0  0
  178.0323  138.3827  130.0484 C   0  0  0  0  0  0  0  0  0  0  0  0
  176.3612  142.7407  132.6694 C   0  0  0  0  0  0  0  0  0  0  0  0
  176.2812  143.2594  133.8243 O   0  0  0  0  0  0  0  0  0  0  0  0
  176.9626  144.0436  129.4240 C   0  0  0  0  0  0  0  0  0  0  0  0
  177.1155  143.9913  128.0986 N   0  0  0  0  0  0  0  0  0  0  0  0
  177.3441  145.1371  127.4117 C   0  0  0  0  0  0  0  0  0  0  0  0
  177.4984  145.0627  126.0375 C   0  0  0  0  0  0  0  0  0  0  0  0
  177.7337  146.2163  125.2944 C   0  0  0  0  0  0  0  0  0  0  0  0
  177.8160  147.4433  125.9132 C   0  0  0  0  0  0  0  0  0  0  0  0
  178.0498  148.5658  125.1392 O   0  0  0  0  0  0  0  0  0  0  0  0
  177.0119  149.1336  124.4146 C   0  0  0  0  0  0  0  0  0  0  0  0
  177.3092  150.0998  123.6688 O   0  0  0  0  0  0  0  0  0  0  0  0
  175.6714  148.6421  124.5123 N   0  0  0  0  0  0  0  0  0  0  0  0
  174.5636  149.3756  123.9948 C   0  0  0  0  0  0  0  0  0  0  0  0
  173.4737  148.4203  123.5833 C   0  0  0  0  0  0  0  0  0  0  0  0
  173.9805  147.0867  123.0981 C   0  0  0  0  0  0  0  0  0  0  0  0
  172.8082  146.1420  122.9885 C   0  0  0  0  0  0  0  0  0  0  0  0
  172.1095  146.2337  121.6731 C   0  0  0  0  0  0  0  0  0  0  0  0
  170.9603  147.1479  121.8007 N   0  0  0  0  0  0  0  0  0  0  0  0
  170.9058  148.3872  121.3130 C   0  0  0  0  0  0  0  0  0  0  0  0
  169.6675  148.9084  121.6068 C   0  0  0  0  0  0  0  0  0  0  0  0
  168.9583  147.9597  122.2888 C   0  0  0  0  0  0  0  0  0  0  0  0
  167.6949  147.9042  122.8356 C   0  0  0  0  0  0  0  0  0  0  0  0
  167.2359  146.7553  123.5056 C   0  0  0  0  0  0  0  0  0  0  0  0
  168.1108  145.6960  123.5843 C   0  0  0  0  0  0  0  0  0  0  0  0
  169.3734  145.7058  123.0552 C   0  0  0  0  0  0  0  0  0  0  0  0
  169.8025  146.8477  122.4006 C   0  0  0  0  0  0  0  0  0  0  0  0
  165.9247  146.7951  123.9906 N   0  0  0  0  0  0  0  0  0  0  0  0
  164.8750  146.4310  123.1915 C   0  0  0  0  0  0  0  0  0  0  0  0
  164.9230  145.9859  122.0136 O   0  0  0  0  0  0  0  0  0  0  0  0
  163.7571  146.6289  123.8811 N   0  0  0  0  0  0  0  0  0  0  0  0
  164.0692  147.0940  125.0598 N   0  0  0  0  0  0  0  0  0  0  0  0
  165.4538  147.2047  125.1471 C   0  0  0  0  0  0  0  0  0  0  0  0
  166.1008  147.7569  126.3319 C   0  0  0  0  0  0  0  0  0  0  0  0
  166.7429  149.0061  126.2186 C   0  0  0  0  0  0  0  0  0  0  0  0
  167.3462  149.6354  127.2771 C   0  0  0  0  0  0  0  0  0  0  0  0
  168.0206  150.9394  127.1103 C   0  0  0  0  0  0  0  0  0  0  0  0
  169.5123  150.7590  127.3658 C   0  0  0  0  0  0  0  0  0  0  0  0
  167.5162  152.0144  128.0310 C   0  0  0  0  0  0  0  0  0  0  0  0
  167.3342  149.0388  128.5099 C   0  0  0  0  0  0  0  0  0  0  0  0
  167.9313  149.6278  129.6268 O   0  0  0  0  0  0  0  0  0  0  0  0
  166.7222  147.8266  128.6721 C   0  0  0  0  0  0  0  0  0  0  0  0
  166.1094  147.2020  127.5669 C   0  0  0  0  0  0  0  0  0  0  0  0
  165.4932  145.9701  127.7950 O   0  0  0  0  0  0  0  0  0  0  0  0
  174.9534  146.4266  124.0581 C   0  0  0  0  0  0  0  0  0  0  0  0
  175.4205  147.3669  125.1495 C   0  0  0  0  0  0  0  0  0  0  0  0
  177.6555  147.4726  127.2910 C   0  0  0  0  0  0  0  0  0  0  0  0
  177.4210  146.3618  128.0688 C   0  0  0  0  0  0  0  0  0  0  0  0
  1  2  1  0
  2  3  1  0
  3  4  2  0
  4  5  1  0
  5  6  1  0
  6  7  1  0
  7  8  2  0
  8  9  1  0
  9 10  2  0
 10 11  1  0
 11 12  1  0
 12 13  1  0
 13 14  2  0
 13 15  1  0
 15 16  1  1
 15 17  1  0
 17 18  1  0
 10 19  1  0
 19 20  2  0
  7 21  1  0
 21 22  2  0
 22 23  1  0
 23 24  2  0
 24 25  1  0
 25 26  2  0
 26 27  1  0
 27 28  1  0
 28 29  2  0
 28 30  1  0
 30 31  1  0
 31 32  1  0
 32 33  1  0
 33 34  1  0
 34 35  1  0
 35 36  1  0
 36 37  1  0
 37 38  2  0
 38 39  1  0
 39 40  2  0
 40 41  1  0
 41 42  2  0
 42 43  1  0
 43 44  2  0
 41 45  1  0
 45 46  1  0
 46 47  2  0
 46 48  1  0
 48 49  1  0
 49 50  2  0
 50 51  1  0
 51 52  2  0
 52 53  1  0
 53 54  1  0
 54 55  1  0
 54 56  1  0
 53 57  2  0
 57 58  1  0
 57 59  1  0
 59 60  2  0
 60 61  1  0
 33 62  1  0
 62 63  1  0
 26 64  1  0
 64 65  2  0
 65  3  1  0
 21  4  1  0
 65 23  1  0
 19  6  1  0
 63 30  1  0
 15  9  1  0
 44 36  1  0
 50 45  1  0
 60 51  1  0
 44 39  1  0
M  END
$$$$
