
     RDKit          3D

 65 74  0  0  0  0  0  0  0  0999 V2000
  185.4899  164.4218  134.6045 C   0  0  0  0  0  0  0  0  0  0  0  0
  186.3159  163.4113  133.8669 C   0  0  0  0  0  0  0  0  0  0  0  0
  186.4325  162.1238  134.5591 C   0  0  0  0  0  0  0  0  0  0  0  0
  185.9333  161.9347  135.8496 C   0  0  0  0  0  0  0  0  0  0  0  0
  185.2346  162.8712  136.7531 C   0  0  0  0  0  0  0  0  0  0  0  0
  184.9530  162.0824  137.9378 N   0  0  0  0  0  0  0  0  0  0  0  0
  185.4221  160.8361  137.8129 C   0  0  0  0  0  0  0  0  0  0  0  0
  185.2513  159.9151  138.8536 C   0  0  0  0  0  0  0  0  0  0  0  0
  184.6062  160.2715  140.0065 C   0  0  0  0  0  0  0  0  0  0  0  0
  184.1286  161.5587  140.1205 C   0  0  0  0  0  0  0  0  0  0  0  0
  183.4136  161.9857  141.3732 C   0  0  0  0  0  0  0  0  0  0  0  0
  184.0065  161.3480  142.4705 O   0  0  0  0  0  0  0  0  0  0  0  0
  184.6575  160.1288  142.3786 C   0  0  0  0  0  0  0  0  0  0  0  0
  185.4280  159.6626  143.2455 O   0  0  0  0  0  0  0  0  0  0  0  0
  184.3956  159.3371  141.1342 C   0  0  1  0  0  0  0  0  0  0  0  0
  183.0504  158.9624  141.1892 O   0  0  0  0  0  0  0  0  0  0  0  0
  185.3078  158.1557  141.0229 C   0  0  0  0  0  0  0  0  0  0  0  0
  185.0869  157.2033  142.1803 C   0  0  0  0  0  0  0  0  0  0  0  0
  184.3177  162.4293  139.0770 C   0  0  0  0  0  0  0  0  0  0  0  0
  183.8692  163.6091  139.2050 O   0  0  0  0  0  0  0  0  0  0  0  0
  186.0488  160.7228  136.4919 C   0  0  0  0  0  0  0  0  0  0  0  0
  186.6440  159.6819  135.9044 N   0  0  0  0  0  0  0  0  0  0  0  0
  187.1426  159.8231  134.6520 C   0  0  0  0  0  0  0  0  0  0  0  0
  187.7547  158.7317  134.0589 C   0  0  0  0  0  0  0  0  0  0  0  0
  188.2791  158.8343  132.7733 C   0  0  0  0  0  0  0  0  0  0  0  0
  188.1967  160.0183  132.0757 C   0  0  0  0  0  0  0  0  0  0  0  0
  188.7290  160.0790  130.8003 O   0  0  0  0  0  0  0  0  0  0  0  0
  189.6566  161.0612  130.4850 C   0  0  0  0  0  0  0  0  0  0  0  0
  189.8340  161.9631  131.3414 O   0  0  0  0  0  0  0  0  0  0  0  0
  190.3745  161.0462  129.2471 N   0  0  0  0  0  0  0  0  0  0  0  0
  191.5546  161.8228  129.0544 C   0  0  0  0  0  0  0  0  0  0  0  0
  192.4517  161.1386  128.0560 C   0  0  0  0  0  0  0  0  0  0  0  0
  192.3523  159.6351  128.0743 C   0  0  0  0  0  0  0  0  0  0  0  0
  193.0714  159.0947  126.8621 C   0  0  0  0  0  0  0  0  0  0  0  0
  193.0172  157.6061  126.7704 C   0  0  0  0  0  0  0  0  0  0  0  0
  191.7322  157.1361  127.3184 N   0  0  0  0  0  0  0  0  0  0  0  0
  191.2613  157.4259  128.5312 C   0  0  0  0  0  0  0  0  0  0  0  0
  190.0279  156.8325  128.6643 C   0  0  0  0  0  0  0  0  0  0  0  0
  189.7486  156.1681  127.5030 C   0  0  0  0  0  0  0  0  0  0  0  0
  188.6925  155.4048  127.0555 C   0  0  0  0  0  0  0  0  0  0  0  0
  188.6968  154.8277  125.7724 C   0  0  0  0  0  0  0  0  0  0  0  0
  189.8054  155.0657  124.9925 C   0  0  0  0  0  0  0  0  0  0  0  0
  190.8762  155.8180  125.3944 C   0  0  0  0  0  0  0  0  0  0  0  0
  190.8489  156.3755  126.6614 C   0  0  0  0  0  0  0  0  0  0  0  0
  187.5580  154.1021  125.4083 N   0  0  0  0  0  0  0  0  0  0  0  0
  187.4673  152.7643  125.6821 C   0  0  0  0  0  0  0  0  0  0  0  0
  188.2978  152.0478  126.3025 O   0  0  0  0  0  0  0  0  0  0  0  0
  186.3225  152.3258  125.1706 N   0  0  0  0  0  0  0  0  0  0  0  0
  185.7088  153.3261  124.5996 N   0  0  0  0  0  0  0  0  0  0  0  0
  186.4857  154.4718  124.7445 C   0  0  0  0  0  0  0  0  0  0  0  0
  186.0860  155.7434  124.1524 C   0  0  0  0  0  0  0  0  0  0  0  0
  186.3900  156.9282  124.8519 C   0  0  0  0  0  0  0  0  0  0  0  0
  186.0972  158.1778  124.3687 C   0  0  0  0  0  0  0  0  0  0  0  0
  186.4215  159.3940  125.1425 C   0  0  0  0  0  0  0  0  0  0  0  0
  187.2750  159.0016  126.3426 C   0  0  0  0  0  0  0  0  0  0  0  0
  185.2189  160.1391  125.6490 C   0  0  0  0  0  0  0  0  0  0  0  0
  185.4818  158.3010  123.1513 C   0  0  0  0  0  0  0  0  0  0  0  0
  185.1569  159.5446  122.6050 O   0  0  0  0  0  0  0  0  0  0  0  0
  185.1675  157.1808  122.4326 C   0  0  0  0  0  0  0  0  0  0  0  0
  185.4802  155.9085  122.9528 C   0  0  0  0  0  0  0  0  0  0  0  0
  185.1432  154.8023  122.1705 O   0  0  0  0  0  0  0  0  0  0  0  0
  190.9268  159.1244  127.9695 C   0  0  0  0  0  0  0  0  0  0  0  0
  189.9012  160.2232  128.1544 C   0  0  0  0  0  0  0  0  0  0  0  0
  187.5756  161.0862  132.7070 C   0  0  0  0  0  0  0  0  0  0  0  0
  187.0419  161.0349  133.9744 C   0  0  0  0  0  0  0  0  0  0  0  0
  1  2  1  0
  2  3  1  0
  3  4  2  0
  4  5  1  0
  5  6  1  0
  6  7  1  0
  7  8  2  0
  8  9  1  0
  9 10  2  0
 10 11  1  0
 11 12  1  0
 12 13  1  0
 13 14  2  0
 13 15  1  0
 15 16  1  1
 15 17  1  0
 17 18  1  0
 10 19  1  0
 19 20  2  0
  7 21  1  0
 21 22  2  0
 22 23  1  0
 23 24  2  0
 24 25  1  0
 25 26  2  0
 26 27  1  0
 27 28  1  0
 28 29  2  0
 28 30  1  0
 30 31  1  0
 31 32  1  0
 32 33  1  0
 33 34  1  0
 34 35  1  0
 35 36  1  0
 36 37  1  0
 37 38  2  0
 38 39  1  0
 39 40  2  0
 40 41  1  0
 41 42  2  0
 42 43  1  0
 43 44  2  0
 41 45  1  0
 45 46  1  0
 46 47  2  0
 46 48  1  0
 48 49  1  0
 49 50  2  0
 50 51  1  0
 51 52  2  0
 52 53  1  0
 53 54  1  0
 54 55  1  0
 54 56  1  0
 53 57  2  0
 57 58  1  0
 57 59  1  0
 59 60  2  0
 60 61  1  0
 33 62  1  0
 62 63  1  0
 26 64  1  0
 64 65  2  0
 65  3  1  0
 21  4  1  0
 65 23  1  0
 19  6  1  0
 63 30  1  0
 15  9  1  0
 44 36  1  0
 50 45  1  0
 60 51  1  0
 44 39  1  0
M  END
$$$$
