
     RDKit          3D

 65 74  0  0  0  0  0  0  0  0999 V2000
  168.1207  143.3807  118.7686 C   0  0  0  0  0  0  0  0  0  0  0  0
  168.5555  144.4919  119.6762 C   0  0  0  0  0  0  0  0  0  0  0  0
  169.8954  144.3038  120.2416 C   0  0  0  0  0  0  0  0  0  0  0  0
  170.1139  143.5041  121.3654 C   0  0  0  0  0  0  0  0  0  0  0  0
  169.1646  142.7243  122.1852 C   0  0  0  0  0  0  0  0  0  0  0  0
  169.9964  142.0931  123.1926 N   0  0  0  0  0  0  0  0  0  0  0  0
  171.2803  142.4381  123.0464 C   0  0  0  0  0  0  0  0  0  0  0  0
  172.2464  141.9324  123.9247 C   0  0  0  0  0  0  0  0  0  0  0  0
  171.8963  141.0833  124.9390 C   0  0  0  0  0  0  0  0  0  0  0  0
  170.5699  140.7371  125.0768 C   0  0  0  0  0  0  0  0  0  0  0  0
  170.1483  139.8052  126.1799 C   0  0  0  0  0  0  0  0  0  0  0  0
  170.9383  140.0564  127.3091 O   0  0  0  0  0  0  0  0  0  0  0  0
  172.2216  140.5727  127.2375 C   0  0  0  0  0  0  0  0  0  0  0  0
  172.8480  141.0674  128.1995 O   0  0  0  0  0  0  0  0  0  0  0  0
  172.8770  140.5179  125.8916 C   0  0  1  0  0  0  0  0  0  0  0  0
  173.0762  139.1631  125.6125 O   0  0  0  0  0  0  0  0  0  0  0  0
  174.1556  141.2953  125.8621 C   0  0  0  0  0  0  0  0  0  0  0  0
  173.8780  142.7792  125.9906 C   0  0  0  0  0  0  0  0  0  0  0  0
  169.6558  141.2555  124.1947 C   0  0  0  0  0  0  0  0  0  0  0  0
  168.4405  140.9224  124.3416 O   0  0  0  0  0  0  0  0  0  0  0  0
  171.3751  143.3348  121.8900 C   0  0  0  0  0  0  0  0  0  0  0  0
  172.4378  143.9305  121.3435 N   0  0  0  0  0  0  0  0  0  0  0  0
  172.2695  144.7156  120.2516 C   0  0  0  0  0  0  0  0  0  0  0  0
  173.3839  145.3235  119.6982 C   0  0  0  0  0  0  0  0  0  0  0  0
  173.2546  146.1370  118.5758 C   0  0  0  0  0  0  0  0  0  0  0  0
  172.0211  146.3479  118.0020 C   0  0  0  0  0  0  0  0  0  0  0  0
  171.9351  147.1620  116.8869 O   0  0  0  0  0  0  0  0  0  0  0  0
  173.0875  147.7049  116.3375 C   0  0  0  0  0  0  0  0  0  0  0  0
  172.9467  148.3757  115.2846 O   0  0  0  0  0  0  0  0  0  0  0  0
  174.3704  147.5106  116.9409 N   0  0  0  0  0  0  0  0  0  0  0  0
  175.0434  148.5626  117.6290 C   0  0  0  0  0  0  0  0  0  0  0  0
  175.9223  147.9806  118.7053 C   0  0  0  0  0  0  0  0  0  0  0  0
  175.3916  146.7037  119.3041 C   0  0  0  0  0  0  0  0  0  0  0  0
  176.4787  146.0853  120.1493 C   0  0  0  0  0  0  0  0  0  0  0  0
  175.9436  145.2273  121.2469 C   0  0  0  0  0  0  0  0  0  0  0  0
  175.4645  146.0894  122.3423 N   0  0  0  0  0  0  0  0  0  0  0  0
  175.2237  147.3967  122.2428 C   0  0  0  0  0  0  0  0  0  0  0  0
  174.7648  147.8410  123.4607 C   0  0  0  0  0  0  0  0  0  0  0  0
  174.7284  146.7751  124.3155 C   0  0  0  0  0  0  0  0  0  0  0  0
  174.3708  146.6057  125.6352 C   0  0  0  0  0  0  0  0  0  0  0  0
  174.4508  145.3480  126.2608 C   0  0  0  0  0  0  0  0  0  0  0  0
  174.9019  144.3022  125.4884 C   0  0  0  0  0  0  0  0  0  0  0  0
  175.2664  144.4234  124.1744 C   0  0  0  0  0  0  0  0  0  0  0  0
  175.1790  145.6711  123.5808 C   0  0  0  0  0  0  0  0  0  0  0  0
  174.0289  145.2832  127.5927 N   0  0  0  0  0  0  0  0  0  0  0  0
  172.8144  144.7398  127.9131 C   0  0  0  0  0  0  0  0  0  0  0  0
  171.9806  144.2059  127.1335 O   0  0  0  0  0  0  0  0  0  0  0  0
  172.6490  144.8700  129.2246 N   0  0  0  0  0  0  0  0  0  0  0  0
  173.6995  145.4635  129.7221 N   0  0  0  0  0  0  0  0  0  0  0  0
  174.5939  145.7334  128.6904 C   0  0  0  0  0  0  0  0  0  0  0  0
  175.8408  146.4507  128.9312 C   0  0  0  0  0  0  0  0  0  0  0  0
  177.0430  145.8628  128.4898 C   0  0  0  0  0  0  0  0  0  0  0  0
  178.2658  146.4680  128.6276 C   0  0  0  0  0  0  0  0  0  0  0  0
  179.5038  145.8089  128.1627 C   0  0  0  0  0  0  0  0  0  0  0  0
  179.3394  145.4303  126.6955 C   0  0  0  0  0  0  0  0  0  0  0  0
  179.8631  144.5664  128.9276 C   0  0  0  0  0  0  0  0  0  0  0  0
  178.3432  147.7014  129.2179 C   0  0  0  0  0  0  0  0  0  0  0  0
  179.5580  148.3694  129.3880 O   0  0  0  0  0  0  0  0  0  0  0  0
  177.2043  148.3148  129.6616 C   0  0  0  0  0  0  0  0  0  0  0  0
  175.9602  147.6703  129.5070 C   0  0  0  0  0  0  0  0  0  0  0  0
  174.8317  148.3487  129.9713 O   0  0  0  0  0  0  0  0  0  0  0  0
  175.0304  145.6565  118.2665 C   0  0  0  0  0  0  0  0  0  0  0  0
  175.0119  146.2155  116.8592 C   0  0  0  0  0  0  0  0  0  0  0  0
  170.9316  145.7200  118.5881 C   0  0  0  0  0  0  0  0  0  0  0  0
  171.0077  144.9073  119.6961 C   0  0  0  0  0  0  0  0  0  0  0  0
  1  2  1  0
  2  3  1  0
  3  4  2  0
  4  5  1  0
  5  6  1  0
  6  7  1  0
  7  8  2  0
  8  9  1  0
  9 10  2  0
 10 11  1  0
 11 12  1  0
 12 13  1  0
 13 14  2  0
 13 15  1  0
 15 16  1  6
 15 17  1  0
 17 18  1  0
 10 19  1  0
 19 20  2  0
  7 21  1  0
 21 22  2  0
 22 23  1  0
 23 24  2  0
 24 25  1  0
 25 26  2  0
 26 27  1  0
 27 28  1  0
 28 29  2  0
 28 30  1  0
 30 31  1  0
 31 32  1  0
 32 33  1  0
 33 34  1  0
 34 35  1  0
 35 36  1  0
 36 37  1  0
 37 38  2  0
 38 39  1  0
 39 40  2  0
 40 41  1  0
 41 42  2  0
 42 43  1  0
 43 44  2  0
 41 45  1  0
 45 46  1  0
 46 47  2  0
 46 48  1  0
 48 49  1  0
 49 50  2  0
 50 51  1  0
 51 52  2  0
 52 53  1  0
 53 54  1  0
 54 55  1  0
 54 56  1  0
 53 57  2  0
 57 58  1  0
 57 59  1  0
 59 60  2  0
 60 61  1  0
 33 62  1  0
 62 63  1  0
 26 64  1  0
 64 65  2  0
 65  3  1  0
 21  4  1  0
 65 23  1  0
 19  6  1  0
 63 30  1  0
 15  9  1  0
 44 36  1  0
 50 45  1  0
 60 51  1  0
 44 39  1  0
M  END
$$$$
