
     RDKit          3D

 65 74  0  0  0  0  0  0  0  0999 V2000
  156.2403  144.0036  129.2380 C   0  0  0  0  0  0  0  0  0  0  0  0
  156.3311  145.1176  128.2390 C   0  0  0  0  0  0  0  0  0  0  0  0
  156.2069  144.6751  126.8465 C   0  0  0  0  0  0  0  0  0  0  0  0
  155.1770  143.8272  126.4333 C   0  0  0  0  0  0  0  0  0  0  0  0
  154.0675  143.2240  127.1992 C   0  0  0  0  0  0  0  0  0  0  0  0
  153.3241  142.4627  126.2128 N   0  0  0  0  0  0  0  0  0  0  0  0
  153.8901  142.5525  125.0044 C   0  0  0  0  0  0  0  0  0  0  0  0
  153.3217  141.8849  123.9128 C   0  0  0  0  0  0  0  0  0  0  0  0
  152.1865  141.1358  124.0625 C   0  0  0  0  0  0  0  0  0  0  0  0
  151.6151  141.0528  125.3134 C   0  0  0  0  0  0  0  0  0  0  0  0
  150.3662  140.2389  125.5154 C   0  0  0  0  0  0  0  0  0  0  0  0
  150.4219  139.1133  124.6835 O   0  0  0  0  0  0  0  0  0  0  0  0
  151.1304  139.0838  123.4936 C   0  0  0  0  0  0  0  0  0  0  0  0
  151.4374  138.0449  122.8700 O   0  0  0  0  0  0  0  0  0  0  0  0
  151.5434  140.4140  122.9425 C   0  0  1  0  0  0  0  0  0  0  0  0
  150.3622  141.0666  122.5792 O   0  0  0  0  0  0  0  0  0  0  0  0
  152.4880  140.2710  121.7902 C   0  0  0  0  0  0  0  0  0  0  0  0
  151.9035  139.3544  120.7349 C   0  0  0  0  0  0  0  0  0  0  0  0
  152.2047  141.7224  126.3557 C   0  0  0  0  0  0  0  0  0  0  0  0
  151.6605  141.6311  127.4981 O   0  0  0  0  0  0  0  0  0  0  0  0
  155.0695  143.4158  125.1242 C   0  0  0  0  0  0  0  0  0  0  0  0
  155.9477  143.8120  124.1997 N   0  0  0  0  0  0  0  0  0  0  0  0
  156.9629  144.6351  124.5589 C   0  0  0  0  0  0  0  0  0  0  0  0
  157.8624  145.0364  123.5856 C   0  0  0  0  0  0  0  0  0  0  0  0
  158.9188  145.8822  123.9125 C   0  0  0  0  0  0  0  0  0  0  0  0
  159.0835  146.3302  125.2038 C   0  0  0  0  0  0  0  0  0  0  0  0
  160.1452  147.1704  125.4876 O   0  0  0  0  0  0  0  0  0  0  0  0
  160.6339  148.0212  124.5068 C   0  0  0  0  0  0  0  0  0  0  0  0
  161.8359  147.8663  124.1757 O   0  0  0  0  0  0  0  0  0  0  0  0
  159.8096  149.0234  123.9036 N   0  0  0  0  0  0  0  0  0  0  0  0
  160.3652  150.1942  123.3088 C   0  0  0  0  0  0  0  0  0  0  0  0
  159.4655  150.6721  122.1990 C   0  0  0  0  0  0  0  0  0  0  0  0
  158.7230  149.5661  121.4946 C   0  0  0  0  0  0  0  0  0  0  0  0
  157.6653  150.1868  120.6144 C   0  0  0  0  0  0  0  0  0  0  0  0
  156.7277  149.1805  120.0354 C   0  0  0  0  0  0  0  0  0  0  0  0
  155.8451  149.8483  119.0620 N   0  0  0  0  0  0  0  0  0  0  0  0
  156.2060  150.2423  117.8408 C   0  0  0  0  0  0  0  0  0  0  0  0
  155.1060  150.7941  117.2268 C   0  0  0  0  0  0  0  0  0  0  0  0
  154.0563  150.7313  118.0998 C   0  0  0  0  0  0  0  0  0  0  0  0
  152.7353  151.1199  118.0532 C   0  0  0  0  0  0  0  0  0  0  0  0
  151.8741  150.9233  119.1484 C   0  0  0  0  0  0  0  0  0  0  0  0
  152.4184  150.3250  120.2616 C   0  0  0  0  0  0  0  0  0  0  0  0
  153.7235  149.9216  120.3523 C   0  0  0  0  0  0  0  0  0  0  0  0
  154.5515  150.1257  119.2617 C   0  0  0  0  0  0  0  0  0  0  0  0
  150.5446  151.3231  118.9792 N   0  0  0  0  0  0  0  0  0  0  0  0
  149.7566  150.7366  118.0263 C   0  0  0  0  0  0  0  0  0  0  0  0
  150.0593  149.7865  117.2557 O   0  0  0  0  0  0  0  0  0  0  0  0
  148.5792  151.3512  118.0440 N   0  0  0  0  0  0  0  0  0  0  0  0
  148.6065  152.2817  118.9586 N   0  0  0  0  0  0  0  0  0  0  0  0
  149.8576  152.2759  119.5685 C   0  0  0  0  0  0  0  0  0  0  0  0
  150.2096  153.2507  120.5946 C   0  0  0  0  0  0  0  0  0  0  0  0
  149.3037  153.4591  121.6536 C   0  0  0  0  0  0  0  0  0  0  0  0
  149.5521  154.3203  122.6915 C   0  0  0  0  0  0  0  0  0  0  0  0
  148.5674  154.5189  123.7749 C   0  0  0  0  0  0  0  0  0  0  0  0
  148.9806  153.6778  124.9768 C   0  0  0  0  0  0  0  0  0  0  0  0
  147.1608  154.1427  123.4036 C   0  0  0  0  0  0  0  0  0  0  0  0
  150.7300  155.0188  122.7187 C   0  0  0  0  0  0  0  0  0  0  0  0
  151.0417  155.9109  123.7471 O   0  0  0  0  0  0  0  0  0  0  0  0
  151.6431  154.8502  121.7146 C   0  0  0  0  0  0  0  0  0  0  0  0
  151.3622  153.9582  120.6599 C   0  0  0  0  0  0  0  0  0  0  0  0
  152.3354  153.8212  119.6682 O   0  0  0  0  0  0  0  0  0  0  0  0
  157.9802  148.6411  122.4415 C   0  0  0  0  0  0  0  0  0  0  0  0
  158.3720  148.8550  123.8886 C   0  0  0  0  0  0  0  0  0  0  0  0
  158.1599  145.9040  126.1472 C   0  0  0  0  0  0  0  0  0  0  0  0
  157.0999  145.0699  125.8741 C   0  0  0  0  0  0  0  0  0  0  0  0
  1  2  1  0
  2  3  1  0
  3  4  2  0
  4  5  1  0
  5  6  1  0
  6  7  1  0
  7  8  2  0
  8  9  1  0
  9 10  2  0
 10 11  1  0
 11 12  1  0
 12 13  1  0
 13 14  2  0
 13 15  1  0
 15 16  1  6
 15 17  1  0
 17 18  1  0
 10 19  1  0
 19 20  2  0
  7 21  1  0
 21 22  2  0
 22 23  1  0
 23 24  2  0
 24 25  1  0
 25 26  2  0
 26 27  1  0
 27 28  1  0
 28 29  2  0
 28 30  1  0
 30 31  1  0
 31 32  1  0
 32 33  1  0
 33 34  1  0
 34 35  1  0
 35 36  1  0
 36 37  1  0
 37 38  2  0
 38 39  1  0
 39 40  2  0
 40 41  1  0
 41 42  2  0
 42 43  1  0
 43 44  2  0
 41 45  1  0
 45 46  1  0
 46 47  2  0
 46 48  1  0
 48 49  1  0
 49 50  2  0
 50 51  1  0
 51 52  2  0
 52 53  1  0
 53 54  1  0
 54 55  1  0
 54 56  1  0
 53 57  2  0
 57 58  1  0
 57 59  1  0
 59 60  2  0
 60 61  1  0
 33 62  1  0
 62 63  1  0
 26 64  1  0
 64 65  2  0
 65  3  1  0
 21  4  1  0
 65 23  1  0
 19  6  1  0
 63 30  1  0
 15  9  1  0
 44 36  1  0
 50 45  1  0
 60 51  1  0
 44 39  1  0
M  END
$$$$
