
     RDKit          3D

 65 74  0  0  0  0  0  0  0  0999 V2000
  179.4234  168.7987  113.8399 C   0  0  0  0  0  0  0  0  0  0  0  0
  178.3337  168.9860  112.8275 C   0  0  0  0  0  0  0  0  0  0  0  0
  178.3179  167.9612  111.7788 C   0  0  0  0  0  0  0  0  0  0  0  0
  179.1499  168.0408  110.6600 C   0  0  0  0  0  0  0  0  0  0  0  0
  180.1516  169.0582  110.2818 C   0  0  0  0  0  0  0  0  0  0  0  0
  180.6974  168.5739  109.0277 N   0  0  0  0  0  0  0  0  0  0  0  0
  180.1137  167.4298  108.6549 C   0  0  0  0  0  0  0  0  0  0  0  0
  180.5018  166.7995  107.4664 C   0  0  0  0  0  0  0  0  0  0  0  0
  181.4774  167.3389  106.6728 C   0  0  0  0  0  0  0  0  0  0  0  0
  182.0694  168.5178  107.0700 C   0  0  0  0  0  0  0  0  0  0  0  0
  183.1460  169.1395  106.2231 C   0  0  0  0  0  0  0  0  0  0  0  0
  182.8442  168.9153  104.8738 O   0  0  0  0  0  0  0  0  0  0  0  0
  182.0985  167.8345  104.4326 C   0  0  0  0  0  0  0  0  0  0  0  0
  181.5747  167.7411  103.3015 O   0  0  0  0  0  0  0  0  0  0  0  0
  181.9273  166.7125  105.4102 C   0  0  1  0  0  0  0  0  0  0  0  0
  183.1970  166.1562  105.5879 O   0  0  0  0  0  0  0  0  0  0  0  0
  180.9298  165.7041  104.9323 C   0  0  0  0  0  0  0  0  0  0  0  0
  179.7777  166.3899  104.2268 C   0  0  0  0  0  0  0  0  0  0  0  0
  181.6589  169.1023  108.2416 C   0  0  0  0  0  0  0  0  0  0  0  0
  182.2185  170.1873  108.5866 O   0  0  0  0  0  0  0  0  0  0  0  0
  179.1269  167.0747  109.6800 C   0  0  0  0  0  0  0  0  0  0  0  0
  178.3064  166.0244  109.7623 N   0  0  0  0  0  0  0  0  0  0  0  0
  177.4821  165.9091  110.8320 C   0  0  0  0  0  0  0  0  0  0  0  0
  176.6398  164.8121  110.9002 C   0  0  0  0  0  0  0  0  0  0  0  0
  175.7781  164.6554  111.9825 C   0  0  0  0  0  0  0  0  0  0  0  0
  175.7514  165.5858  112.9969 C   0  0  0  0  0  0  0  0  0  0  0  0
  174.8819  165.3932  114.0553 O   0  0  0  0  0  0  0  0  0  0  0  0
  174.9478  164.2241  114.7994 C   0  0  0  0  0  0  0  0  0  0  0  0
  175.5344  164.2952  115.9080 O   0  0  0  0  0  0  0  0  0  0  0  0
  174.3755  163.0004  114.3271 N   0  0  0  0  0  0  0  0  0  0  0  0
  174.4874  161.7855  115.0651 C   0  0  0  0  0  0  0  0  0  0  0  0
  173.2966  160.9088  114.7775 C   0  0  0  0  0  0  0  0  0  0  0  0
  172.0320  161.6728  114.4811 C   0  0  0  0  0  0  0  0  0  0  0  0
  171.0055  160.7058  113.9426 C   0  0  0  0  0  0  0  0  0  0  0  0
  169.7320  161.3736  113.5434 C   0  0  0  0  0  0  0  0  0  0  0  0
  169.0361  160.5315  112.5538 N   0  0  0  0  0  0  0  0  0  0  0  0
  168.2645  159.4837  112.8428 C   0  0  0  0  0  0  0  0  0  0  0  0
  167.7719  158.9769  111.6630 C   0  0  0  0  0  0  0  0  0  0  0  0
  168.2590  159.7380  110.6376 C   0  0  0  0  0  0  0  0  0  0  0  0
  168.1230  159.7147  109.2667 C   0  0  0  0  0  0  0  0  0  0  0  0
  168.7751  160.6559  108.4491 C   0  0  0  0  0  0  0  0  0  0  0  0
  169.5507  161.5960  109.0882 C   0  0  0  0  0  0  0  0  0  0  0  0
  169.7136  161.6582  110.4460 C   0  0  0  0  0  0  0  0  0  0  0  0
  169.0619  160.7212  111.2296 C   0  0  0  0  0  0  0  0  0  0  0  0
  168.5384  160.5614  107.0740 N   0  0  0  0  0  0  0  0  0  0  0  0
  169.3815  159.8436  106.2696 C   0  0  0  0  0  0  0  0  0  0  0  0
  170.3849  159.1654  106.6176 O   0  0  0  0  0  0  0  0  0  0  0  0
  168.9576  159.9812  105.0183 N   0  0  0  0  0  0  0  0  0  0  0  0
  167.8992  160.7447  105.0165 N   0  0  0  0  0  0  0  0  0  0  0  0
  167.6160  161.1235  106.3255 C   0  0  0  0  0  0  0  0  0  0  0  0
  166.5186  162.0330  106.6350 C   0  0  0  0  0  0  0  0  0  0  0  0
  165.5082  161.5843  107.5087 C   0  0  0  0  0  0  0  0  0  0  0  0
  164.4542  162.3698  107.8990 C   0  0  0  0  0  0  0  0  0  0  0  0
  163.4086  161.8537  108.8065 C   0  0  0  0  0  0  0  0  0  0  0  0
  163.7307  162.2931  110.2299 C   0  0  0  0  0  0  0  0  0  0  0  0
  163.2728  160.3573  108.7997 C   0  0  0  0  0  0  0  0  0  0  0  0
  164.3618  163.6532  107.4298 C   0  0  0  0  0  0  0  0  0  0  0  0
  163.3130  164.5026  107.7894 O   0  0  0  0  0  0  0  0  0  0  0  0
  165.3186  164.1366  106.5805 C   0  0  0  0  0  0  0  0  0  0  0  0
  166.3918  163.3074  106.1956 C   0  0  0  0  0  0  0  0  0  0  0  0
  167.3422  163.8583  105.3339 O   0  0  0  0  0  0  0  0  0  0  0  0
  172.2053  162.7306  113.4064 C   0  0  0  0  0  0  0  0  0  0  0  0
  173.6599  162.9828  113.0689 C   0  0  0  0  0  0  0  0  0  0  0  0
  176.6114  166.6691  112.8887 C   0  0  0  0  0  0  0  0  0  0  0  0
  177.4809  166.8683  111.8407 C   0  0  0  0  0  0  0  0  0  0  0  0
  1  2  1  0
  2  3  1  0
  3  4  2  0
  4  5  1  0
  5  6  1  0
  6  7  1  0
  7  8  2  0
  8  9  1  0
  9 10  2  0
 10 11  1  0
 11 12  1  0
 12 13  1  0
 13 14  2  0
 13 15  1  0
 15 16  1  1
 15 17  1  0
 17 18  1  0
 10 19  1  0
 19 20  2  0
  7 21  1  0
 21 22  2  0
 22 23  1  0
 23 24  2  0
 24 25  1  0
 25 26  2  0
 26 27  1  0
 27 28  1  0
 28 29  2  0
 28 30  1  0
 30 31  1  0
 31 32  1  0
 32 33  1  0
 33 34  1  0
 34 35  1  0
 35 36  1  0
 36 37  1  0
 37 38  2  0
 38 39  1  0
 39 40  2  0
 40 41  1  0
 41 42  2  0
 42 43  1  0
 43 44  2  0
 41 45  1  0
 45 46  1  0
 46 47  2  0
 46 48  1  0
 48 49  1  0
 49 50  2  0
 50 51  1  0
 51 52  2  0
 52 53  1  0
 53 54  1  0
 54 55  1  0
 54 56  1  0
 53 57  2  0
 57 58  1  0
 57 59  1  0
 59 60  2  0
 60 61  1  0
 33 62  1  0
 62 63  1  0
 26 64  1  0
 64 65  2  0
 65  3  1  0
 21  4  1  0
 65 23  1  0
 19  6  1  0
 63 30  1  0
 15  9  1  0
 44 36  1  0
 50 45  1  0
 60 51  1  0
 44 39  1  0
M  END
$$$$
