
     RDKit          3D

 65 74  0  0  0  0  0  0  0  0999 V2000
  135.6408  179.9767  150.1235 C   0  0  0  0  0  0  0  0  0  0  0  0
  134.5237  179.0417  149.7695 C   0  0  0  0  0  0  0  0  0  0  0  0
  133.1931  179.5521  150.1148 C   0  0  0  0  0  0  0  0  0  0  0  0
  132.8762  180.9083  150.0122 C   0  0  0  0  0  0  0  0  0  0  0  0
  133.7001  182.0542  149.5768 C   0  0  0  0  0  0  0  0  0  0  0  0
  132.8060  183.1932  149.6684 N   0  0  0  0  0  0  0  0  0  0  0  0
  131.5998  182.8274  150.1159 C   0  0  0  0  0  0  0  0  0  0  0  0
  130.5914  183.7854  150.2759 C   0  0  0  0  0  0  0  0  0  0  0  0
  130.8207  185.1014  149.9792 C   0  0  0  0  0  0  0  0  0  0  0  0
  132.0682  185.4628  149.5193 C   0  0  0  0  0  0  0  0  0  0  0  0
  132.3563  186.9003  149.1824 C   0  0  0  0  0  0  0  0  0  0  0  0
  131.6653  187.7217  150.0823 O   0  0  0  0  0  0  0  0  0  0  0  0
  130.4928  187.3384  150.7126 C   0  0  0  0  0  0  0  0  0  0  0  0
  130.0000  187.9052  151.7118 O   0  0  0  0  0  0  0  0  0  0  0  0
  129.7900  186.1525  150.1266 C   0  0  1  0  0  0  0  0  0  0  0  0
  129.3423  186.5521  148.8644 O   0  0  0  0  0  0  0  0  0  0  0  0
  128.6704  185.6801  151.0004 C   0  0  0  0  0  0  0  0  0  0  0  0
  127.6451  186.7792  151.1906 C   0  0  0  0  0  0  0  0  0  0  0  0
  133.0276  184.4923  149.3774 C   0  0  0  0  0  0  0  0  0  0  0  0
  134.1685  184.8491  148.9524 O   0  0  0  0  0  0  0  0  0  0  0  0
  131.6248  181.3784  150.3402 C   0  0  0  0  0  0  0  0  0  0  0  0
  130.6664  180.5540  150.7700 N   0  0  0  0  0  0  0  0  0  0  0  0
  130.9326  179.2300  150.8843 C   0  0  0  0  0  0  0  0  0  0  0  0
  129.9252  178.3909  151.3302 C   0  0  0  0  0  0  0  0  0  0  0  0
  130.1569  177.0242  151.4608 C   0  0  0  0  0  0  0  0  0  0  0  0
  131.3867  176.4895  151.1494 C   0  0  0  0  0  0  0  0  0  0  0  0
  131.5763  175.1267  151.2916 O   0  0  0  0  0  0  0  0  0  0  0  0
  132.7903  174.6430  151.7574 C   0  0  0  0  0  0  0  0  0  0  0  0
  133.7977  174.8687  151.0416 O   0  0  0  0  0  0  0  0  0  0  0  0
  132.8885  173.9244  152.9911 N   0  0  0  0  0  0  0  0  0  0  0  0
  131.7492  173.6891  153.8153 C   0  0  0  0  0  0  0  0  0  0  0  0
  131.9400  172.4092  154.5868 C   0  0  0  0  0  0  0  0  0  0  0  0
  132.7594  171.3738  153.8607 C   0  0  0  0  0  0  0  0  0  0  0  0
  133.1090  170.2738  154.8335 C   0  0  0  0  0  0  0  0  0  0  0  0
  133.6990  169.0756  154.1678 C   0  0  0  0  0  0  0  0  0  0  0  0
  134.0991  168.1002  155.1978 N   0  0  0  0  0  0  0  0  0  0  0  0
  133.6615  168.0883  156.4568 C   0  0  0  0  0  0  0  0  0  0  0  0
  134.2355  167.0163  157.0991 C   0  0  0  0  0  0  0  0  0  0  0  0
  135.0392  166.3661  156.2051 C   0  0  0  0  0  0  0  0  0  0  0  0
  135.8536  165.2565  156.2658 C   0  0  0  0  0  0  0  0  0  0  0  0
  136.5855  164.8220  155.1456 C   0  0  0  0  0  0  0  0  0  0  0  0
  136.4447  165.5598  153.9925 C   0  0  0  0  0  0  0  0  0  0  0  0
  135.6469  166.6671  153.8856 C   0  0  0  0  0  0  0  0  0  0  0  0
  134.9365  167.0752  155.0016 C   0  0  0  0  0  0  0  0  0  0  0  0
  137.3522  163.6637  155.3092 N   0  0  0  0  0  0  0  0  0  0  0  0
  138.7159  163.7377  155.3978 C   0  0  0  0  0  0  0  0  0  0  0  0
  139.4314  164.7749  155.4034 O   0  0  0  0  0  0  0  0  0  0  0  0
  139.1814  162.4963  155.4798 N   0  0  0  0  0  0  0  0  0  0  0  0
  138.1733  161.6682  155.4470 N   0  0  0  0  0  0  0  0  0  0  0  0
  136.9941  162.3997  155.3398 C   0  0  0  0  0  0  0  0  0  0  0  0
  135.6979  161.7421  155.2192 C   0  0  0  0  0  0  0  0  0  0  0  0
  134.7036  162.3680  154.4413 C   0  0  0  0  0  0  0  0  0  0  0  0
  133.4654  161.8187  154.2275 C   0  0  0  0  0  0  0  0  0  0  0  0
  132.4472  162.5167  153.4157 C   0  0  0  0  0  0  0  0  0  0  0  0
  133.0939  163.0000  152.1231 C   0  0  0  0  0  0  0  0  0  0  0  0
  131.8244  163.7022  154.0975 C   0  0  0  0  0  0  0  0  0  0  0  0
  133.1621  160.6057  154.7866 C   0  0  0  0  0  0  0  0  0  0  0  0
  131.9193  159.9942  154.6069 O   0  0  0  0  0  0  0  0  0  0  0  0
  134.0940  159.9570  155.5489 C   0  0  0  0  0  0  0  0  0  0  0  0
  135.3592  160.5443  155.7522 C   0  0  0  0  0  0  0  0  0  0  0  0
  136.2721  159.8316  156.5319 O   0  0  0  0  0  0  0  0  0  0  0  0
  134.0847  171.9064  153.3471 C   0  0  0  0  0  0  0  0  0  0  0  0
  134.1730  173.4162  153.4239 C   0  0  0  0  0  0  0  0  0  0  0  0
  132.3672  177.3656  150.7065 C   0  0  0  0  0  0  0  0  0  0  0  0
  132.1874  178.7221  150.5604 C   0  0  0  0  0  0  0  0  0  0  0  0
  1  2  1  0
  2  3  1  0
  3  4  2  0
  4  5  1  0
  5  6  1  0
  6  7  1  0
  7  8  2  0
  8  9  1  0
  9 10  2  0
 10 11  1  0
 11 12  1  0
 12 13  1  0
 13 14  2  0
 13 15  1  0
 15 16  1  6
 15 17  1  0
 17 18  1  0
 10 19  1  0
 19 20  2  0
  7 21  1  0
 21 22  2  0
 22 23  1  0
 23 24  2  0
 24 25  1  0
 25 26  2  0
 26 27  1  0
 27 28  1  0
 28 29  2  0
 28 30  1  0
 30 31  1  0
 31 32  1  0
 32 33  1  0
 33 34  1  0
 34 35  1  0
 35 36  1  0
 36 37  1  0
 37 38  2  0
 38 39  1  0
 39 40  2  0
 40 41  1  0
 41 42  2  0
 42 43  1  0
 43 44  2  0
 41 45  1  0
 45 46  1  0
 46 47  2  0
 46 48  1  0
 48 49  1  0
 49 50  2  0
 50 51  1  0
 51 52  2  0
 52 53  1  0
 53 54  1  0
 54 55  1  0
 54 56  1  0
 53 57  2  0
 57 58  1  0
 57 59  1  0
 59 60  2  0
 60 61  1  0
 33 62  1  0
 62 63  1  0
 26 64  1  0
 64 65  2  0
 65  3  1  0
 21  4  1  0
 65 23  1  0
 19  6  1  0
 63 30  1  0
 15  9  1  0
 44 36  1  0
 50 45  1  0
 60 51  1  0
 44 39  1  0
M  END
$$$$
