
     RDKit          3D

 65 74  0  0  0  0  0  0  0  0999 V2000
  157.7184  149.1098  120.9890 C   0  0  0  0  0  0  0  0  0  0  0  0
  158.4286  147.9323  121.5861 C   0  0  0  0  0  0  0  0  0  0  0  0
  157.5445  147.0125  122.3090 C   0  0  0  0  0  0  0  0  0  0  0  0
  156.3335  147.4370  122.8600 C   0  0  0  0  0  0  0  0  0  0  0  0
  155.6951  148.7689  122.8584 C   0  0  0  0  0  0  0  0  0  0  0  0
  154.4465  148.5680  123.5697 N   0  0  0  0  0  0  0  0  0  0  0  0
  154.3211  147.3013  123.9800 C   0  0  0  0  0  0  0  0  0  0  0  0
  153.1809  146.9037  124.6888 C   0  0  0  0  0  0  0  0  0  0  0  0
  152.1836  147.7970  124.9710 C   0  0  0  0  0  0  0  0  0  0  0  0
  152.3272  149.0983  124.5418 C   0  0  0  0  0  0  0  0  0  0  0  0
  151.2507  150.1078  124.8333 C   0  0  0  0  0  0  0  0  0  0  0  0
  150.7019  149.8312  126.0920 O   0  0  0  0  0  0  0  0  0  0  0  0
  150.6884  148.5642  126.6519 C   0  0  0  0  0  0  0  0  0  0  0  0
  150.4718  148.3178  127.8581 O   0  0  0  0  0  0  0  0  0  0  0  0
  150.9576  147.4287  125.7128 C   0  0  1  0  0  0  0  0  0  0  0  0
  149.8715  147.3867  124.8342 O   0  0  0  0  0  0  0  0  0  0  0  0
  151.1459  146.1351  126.4417 C   0  0  0  0  0  0  0  0  0  0  0  0
  149.9348  145.8271  127.2984 C   0  0  0  0  0  0  0  0  0  0  0  0
  153.4604  149.4457  123.8507 C   0  0  0  0  0  0  0  0  0  0  0  0
  153.5703  150.6495  123.4658 O   0  0  0  0  0  0  0  0  0  0  0  0
  155.5109  146.5665  123.5383 C   0  0  0  0  0  0  0  0  0  0  0  0
  155.8411  145.2823  123.6956 N   0  0  0  0  0  0  0  0  0  0  0  0
  157.0083  144.8293  123.1765 C   0  0  0  0  0  0  0  0  0  0  0  0
  157.3325  143.4941  123.3486 C   0  0  0  0  0  0  0  0  0  0  0  0
  158.5215  142.9883  122.8302 C   0  0  0  0  0  0  0  0  0  0  0  0
  159.3889  143.8058  122.1413 C   0  0  0  0  0  0  0  0  0  0  0  0
  160.5594  143.2645  121.6409 O   0  0  0  0  0  0  0  0  0  0  0  0
  161.7704  143.5513  122.2540 C   0  0  0  0  0  0  0  0  0  0  0  0
  162.3544  142.5945  122.8211 O   0  0  0  0  0  0  0  0  0  0  0  0
  162.3252  144.8704  122.2397 N   0  0  0  0  0  0  0  0  0  0  0  0
  161.5142  146.0278  122.4285 C   0  0  0  0  0  0  0  0  0  0  0  0
  162.3354  147.1222  123.0590 C   0  0  0  0  0  0  0  0  0  0  0  0
  163.4220  146.6210  123.9750 C   0  0  0  0  0  0  0  0  0  0  0  0
  164.3328  147.7767  124.3118 C   0  0  0  0  0  0  0  0  0  0  0  0
  165.4654  147.3836  125.2005 C   0  0  0  0  0  0  0  0  0  0  0  0
  166.2292  148.5891  125.5694 N   0  0  0  0  0  0  0  0  0  0  0  0
  165.9107  149.8366  125.2245 C   0  0  0  0  0  0  0  0  0  0  0  0
  166.8415  150.6843  125.7779 C   0  0  0  0  0  0  0  0  0  0  0  0
  167.7435  149.9288  126.4734 C   0  0  0  0  0  0  0  0  0  0  0  0
  168.8713  150.2077  127.2140 C   0  0  0  0  0  0  0  0  0  0  0  0
  169.6204  149.1841  127.8227 C   0  0  0  0  0  0  0  0  0  0  0  0
  169.1685  147.8970  127.6406 C   0  0  0  0  0  0  0  0  0  0  0  0
  168.0537  147.5732  126.9150 C   0  0  0  0  0  0  0  0  0  0  0  0
  167.3331  148.5978  126.3254 C   0  0  0  0  0  0  0  0  0  0  0  0
  170.7261  149.5831  128.5806 N   0  0  0  0  0  0  0  0  0  0  0  0
  170.5975  149.8402  129.9186 C   0  0  0  0  0  0  0  0  0  0  0  0
  169.5654  149.7140  130.6306 O   0  0  0  0  0  0  0  0  0  0  0  0
  171.7770  150.2593  130.3628 N   0  0  0  0  0  0  0  0  0  0  0  0
  172.6196  150.2707  129.3662 N   0  0  0  0  0  0  0  0  0  0  0  0
  171.9630  149.8385  128.2176 C   0  0  0  0  0  0  0  0  0  0  0  0
  172.6349  149.8032  126.9235 C   0  0  0  0  0  0  0  0  0  0  0  0
  172.1708  150.6636  125.9087 C   0  0  0  0  0  0  0  0  0  0  0  0
  172.7539  150.7416  124.6700 C   0  0  0  0  0  0  0  0  0  0  0  0
  172.2256  151.6484  123.6300 C   0  0  0  0  0  0  0  0  0  0  0  0
  171.5271  152.8215  124.3074 C   0  0  0  0  0  0  0  0  0  0  0  0
  171.2471  151.0022  122.6904 C   0  0  0  0  0  0  0  0  0  0  0  0
  173.8392  149.9556  124.3868 C   0  0  0  0  0  0  0  0  0  0  0  0
  174.4769  149.9882  123.1447 O   0  0  0  0  0  0  0  0  0  0  0  0
  174.3289  149.1049  125.3391 C   0  0  0  0  0  0  0  0  0  0  0  0
  173.7103  149.0450  126.6044 C   0  0  0  0  0  0  0  0  0  0  0  0
  174.2595  148.1645  127.5384 O   0  0  0  0  0  0  0  0  0  0  0  0
  164.3102  145.5688  123.3363 C   0  0  0  0  0  0  0  0  0  0  0  0
  163.7466  145.0476  122.0309 C   0  0  0  0  0  0  0  0  0  0  0  0
  159.0253  145.1363  121.9919 C   0  0  0  0  0  0  0  0  0  0  0  0
  157.8626  145.6832  122.4847 C   0  0  0  0  0  0  0  0  0  0  0  0
  1  2  1  0
  2  3  1  0
  3  4  2  0
  4  5  1  0
  5  6  1  0
  6  7  1  0
  7  8  2  0
  8  9  1  0
  9 10  2  0
 10 11  1  0
 11 12  1  0
 12 13  1  0
 13 14  2  0
 13 15  1  0
 15 16  1  6
 15 17  1  0
 17 18  1  0
 10 19  1  0
 19 20  2  0
  7 21  1  0
 21 22  2  0
 22 23  1  0
 23 24  2  0
 24 25  1  0
 25 26  2  0
 26 27  1  0
 27 28  1  0
 28 29  2  0
 28 30  1  0
 30 31  1  0
 31 32  1  0
 32 33  1  0
 33 34  1  0
 34 35  1  0
 35 36  1  0
 36 37  1  0
 37 38  2  0
 38 39  1  0
 39 40  2  0
 40 41  1  0
 41 42  2  0
 42 43  1  0
 43 44  2  0
 41 45  1  0
 45 46  1  0
 46 47  2  0
 46 48  1  0
 48 49  1  0
 49 50  2  0
 50 51  1  0
 51 52  2  0
 52 53  1  0
 53 54  1  0
 54 55  1  0
 54 56  1  0
 53 57  2  0
 57 58  1  0
 57 59  1  0
 59 60  2  0
 60 61  1  0
 33 62  1  0
 62 63  1  0
 26 64  1  0
 64 65  2  0
 65  3  1  0
 21  4  1  0
 65 23  1  0
 19  6  1  0
 63 30  1  0
 15  9  1  0
 44 36  1  0
 50 45  1  0
 60 51  1  0
 44 39  1  0
M  END
$$$$
