
     RDKit          3D

 65 74  0  0  0  0  0  0  0  0999 V2000
  192.8359  175.4019  119.2459 C   0  0  0  0  0  0  0  0  0  0  0  0
  192.4513  174.3258  120.2162 C   0  0  0  0  0  0  0  0  0  0  0  0
  191.1262  174.5152  120.8150 C   0  0  0  0  0  0  0  0  0  0  0  0
  189.9532  174.2931  120.0905 C   0  0  0  0  0  0  0  0  0  0  0  0
  189.7587  173.8568  118.6929 C   0  0  0  0  0  0  0  0  0  0  0  0
  188.3178  173.7907  118.5359 N   0  0  0  0  0  0  0  0  0  0  0  0
  187.6908  174.1519  119.6608 C   0  0  0  0  0  0  0  0  0  0  0  0
  186.2917  174.1558  119.7132 C   0  0  0  0  0  0  0  0  0  0  0  0
  185.5480  173.7925  118.6235 C   0  0  0  0  0  0  0  0  0  0  0  0
  186.2081  173.4230  117.4720 C   0  0  0  0  0  0  0  0  0  0  0  0
  185.4233  173.0168  116.2546 C   0  0  0  0  0  0  0  0  0  0  0  0
  184.2595  173.7935  116.1884 O   0  0  0  0  0  0  0  0  0  0  0  0
  183.6482  174.3407  117.3045 C   0  0  0  0  0  0  0  0  0  0  0  0
  182.7921  175.2511  117.2766 O   0  0  0  0  0  0  0  0  0  0  0  0
  184.0686  173.7755  118.6265 C   0  0  1  0  0  0  0  0  0  0  0  0
  183.6138  172.4542  118.6453 O   0  0  0  0  0  0  0  0  0  0  0  0
  183.5303  174.5754  119.7713 C   0  0  0  0  0  0  0  0  0  0  0  0
  182.0174  174.5004  119.8066 C   0  0  0  0  0  0  0  0  0  0  0  0
  187.5801  173.4336  117.4636 C   0  0  0  0  0  0  0  0  0  0  0  0
  188.1656  173.0895  116.3920 O   0  0  0  0  0  0  0  0  0  0  0  0
  188.7137  174.4750  120.6607 C   0  0  0  0  0  0  0  0  0  0  0  0
  188.5868  174.8719  121.9293 N   0  0  0  0  0  0  0  0  0  0  0  0
  189.7005  175.0989  122.6677 C   0  0  0  0  0  0  0  0  0  0  0  0
  189.5484  175.5084  123.9818 C   0  0  0  0  0  0  0  0  0  0  0  0
  190.6666  175.7513  124.7749 C   0  0  0  0  0  0  0  0  0  0  0  0
  191.9352  175.5883  124.2656 C   0  0  0  0  0  0  0  0  0  0  0  0
  193.0201  175.8387  125.0864 O   0  0  0  0  0  0  0  0  0  0  0  0
  193.4322  174.8783  125.9987 C   0  0  0  0  0  0  0  0  0  0  0  0
  194.6056  174.9837  126.4351 O   0  0  0  0  0  0  0  0  0  0  0  0
  192.5637  173.8222  126.4209 N   0  0  0  0  0  0  0  0  0  0  0  0
  192.1972  172.7571  125.5466 C   0  0  0  0  0  0  0  0  0  0  0  0
  191.9243  171.5138  126.3524 C   0  0  0  0  0  0  0  0  0  0  0  0
  192.7469  171.4077  127.6105 C   0  0  0  0  0  0  0  0  0  0  0  0
  192.1880  170.2866  128.4528 C   0  0  0  0  0  0  0  0  0  0  0  0
  191.3988  169.3007  127.6577 C   0  0  0  0  0  0  0  0  0  0  0  0
  191.1522  168.1040  128.4822 N   0  0  0  0  0  0  0  0  0  0  0  0
  190.2078  167.9952  129.4165 C   0  0  0  0  0  0  0  0  0  0  0  0
  190.2716  166.7266  129.9436 C   0  0  0  0  0  0  0  0  0  0  0  0
  191.2798  166.0542  129.3115 C   0  0  0  0  0  0  0  0  0  0  0  0
  191.8071  164.7854  129.4114 C   0  0  0  0  0  0  0  0  0  0  0  0
  192.8839  164.3733  128.6050 C   0  0  0  0  0  0  0  0  0  0  0  0
  193.3786  165.2997  127.7157 C   0  0  0  0  0  0  0  0  0  0  0  0
  192.8858  166.5697  127.5809 C   0  0  0  0  0  0  0  0  0  0  0  0
  191.8261  166.9521  128.3856 C   0  0  0  0  0  0  0  0  0  0  0  0
  193.3164  163.0529  128.7646 N   0  0  0  0  0  0  0  0  0  0  0  0
  192.7202  162.0356  128.0699 C   0  0  0  0  0  0  0  0  0  0  0  0
  191.8053  162.1254  127.2081 O   0  0  0  0  0  0  0  0  0  0  0  0
  193.2805  160.8974  128.4636 N   0  0  0  0  0  0  0  0  0  0  0  0
  194.1883  161.1664  129.3617 N   0  0  0  0  0  0  0  0  0  0  0  0
  194.2255  162.5428  129.5649 C   0  0  0  0  0  0  0  0  0  0  0  0
  195.1051  163.1422  130.5619 C   0  0  0  0  0  0  0  0  0  0  0  0
  195.6606  164.4073  130.2851 C   0  0  0  0  0  0  0  0  0  0  0  0
  196.4664  165.0794  131.1680 C   0  0  0  0  0  0  0  0  0  0  0  0
  197.0394  166.3990  130.8309 C   0  0  0  0  0  0  0  0  0  0  0  0
  198.5178  166.4034  131.2009 C   0  0  0  0  0  0  0  0  0  0  0  0
  196.3796  167.5528  131.5318 C   0  0  0  0  0  0  0  0  0  0  0  0
  196.7557  164.5122  132.3806 C   0  0  0  0  0  0  0  0  0  0  0  0
  197.5699  165.1453  133.3223 O   0  0  0  0  0  0  0  0  0  0  0  0
  196.2392  163.2862  132.6976 C   0  0  0  0  0  0  0  0  0  0  0  0
  195.4135  162.6173  131.7713 C   0  0  0  0  0  0  0  0  0  0  0  0
  194.9086  161.3730  132.1538 O   0  0  0  0  0  0  0  0  0  0  0  0
  192.6796  172.6497  128.4805 C   0  0  0  0  0  0  0  0  0  0  0  0
  192.0379  173.8228  127.7695 C   0  0  0  0  0  0  0  0  0  0  0  0
  192.0420  175.1769  122.9449 C   0  0  0  0  0  0  0  0  0  0  0  0
  190.9688  174.9239  122.1216 C   0  0  0  0  0  0  0  0  0  0  0  0
  1  2  1  0
  2  3  1  0
  3  4  2  0
  4  5  1  0
  5  6  1  0
  6  7  1  0
  7  8  2  0
  8  9  1  0
  9 10  2  0
 10 11  1  0
 11 12  1  0
 12 13  1  0
 13 14  2  0
 13 15  1  0
 15 16  1  1
 15 17  1  0
 17 18  1  0
 10 19  1  0
 19 20  2  0
  7 21  1  0
 21 22  2  0
 22 23  1  0
 23 24  2  0
 24 25  1  0
 25 26  2  0
 26 27  1  0
 27 28  1  0
 28 29  2  0
 28 30  1  0
 30 31  1  0
 31 32  1  0
 32 33  1  0
 33 34  1  0
 34 35  1  0
 35 36  1  0
 36 37  1  0
 37 38  2  0
 38 39  1  0
 39 40  2  0
 40 41  1  0
 41 42  2  0
 42 43  1  0
 43 44  2  0
 41 45  1  0
 45 46  1  0
 46 47  2  0
 46 48  1  0
 48 49  1  0
 49 50  2  0
 50 51  1  0
 51 52  2  0
 52 53  1  0
 53 54  1  0
 54 55  1  0
 54 56  1  0
 53 57  2  0
 57 58  1  0
 57 59  1  0
 59 60  2  0
 60 61  1  0
 33 62  1  0
 62 63  1  0
 26 64  1  0
 64 65  2  0
 65  3  1  0
 21  4  1  0
 65 23  1  0
 19  6  1  0
 63 30  1  0
 15  9  1  0
 44 36  1  0
 50 45  1  0
 60 51  1  0
 44 39  1  0
M  END
$$$$
