
     RDKit          3D

 65 74  0  0  0  0  0  0  0  0999 V2000
  165.8463  164.3248  111.1462 C   0  0  0  0  0  0  0  0  0  0  0  0
  166.4507  164.4626  109.7812 C   0  0  0  0  0  0  0  0  0  0  0  0
  167.0540  165.7755  109.5310 C   0  0  0  0  0  0  0  0  0  0  0  0
  166.2790  166.8916  109.2085 C   0  0  0  0  0  0  0  0  0  0  0  0
  164.8166  167.0302  109.0547 C   0  0  0  0  0  0  0  0  0  0  0  0
  164.6216  168.4323  108.7365 N   0  0  0  0  0  0  0  0  0  0  0  0
  165.7889  169.0824  108.6766 C   0  0  0  0  0  0  0  0  0  0  0  0
  165.8149  170.4506  108.3803 C   0  0  0  0  0  0  0  0  0  0  0  0
  164.6559  171.1402  108.1492 C   0  0  0  0  0  0  0  0  0  0  0  0
  163.4613  170.4569  108.2144 C   0  0  0  0  0  0  0  0  0  0  0  0
  162.1671  171.1826  107.9668 C   0  0  0  0  0  0  0  0  0  0  0  0
  162.3767  172.1548  106.9804 O   0  0  0  0  0  0  0  0  0  0  0  0
  163.6058  172.7515  106.7525 C   0  0  0  0  0  0  0  0  0  0  0  0
  163.9063  173.4008  105.7274 O   0  0  0  0  0  0  0  0  0  0  0  0
  164.6268  172.5859  107.8360 C   0  0  1  0  0  0  0  0  0  0  0  0
  164.1415  173.2959  108.9376 O   0  0  0  0  0  0  0  0  0  0  0  0
  165.9785  173.0638  107.4060 C   0  0  0  0  0  0  0  0  0  0  0  0
  166.2862  172.5912  105.9997 C   0  0  0  0  0  0  0  0  0  0  0  0
  163.4810  169.1167  108.5076 C   0  0  0  0  0  0  0  0  0  0  0  0
  162.3688  168.5088  108.5620 O   0  0  0  0  0  0  0  0  0  0  0  0
  166.8545  168.1197  108.9738 C   0  0  0  0  0  0  0  0  0  0  0  0
  168.1770  168.2895  109.0450 N   0  0  0  0  0  0  0  0  0  0  0  0
  168.9657  167.2317  109.3549 C   0  0  0  0  0  0  0  0  0  0  0  0
  170.3346  167.4280  109.4256 C   0  0  0  0  0  0  0  0  0  0  0  0
  171.1800  166.3680  109.7418 C   0  0  0  0  0  0  0  0  0  0  0  0
  170.6687  165.1137  109.9879 C   0  0  0  0  0  0  0  0  0  0  0  0
  171.5420  164.0873  110.2999 O   0  0  0  0  0  0  0  0  0  0  0  0
  171.9933  163.2368  109.3011 C   0  0  0  0  0  0  0  0  0  0  0  0
  171.4743  162.0935  109.2589 O   0  0  0  0  0  0  0  0  0  0  0  0
  172.9983  163.6427  108.3668 N   0  0  0  0  0  0  0  0  0  0  0  0
  173.8595  164.7495  108.6245 C   0  0  0  0  0  0  0  0  0  0  0  0
  175.1777  164.5365  107.9268 C   0  0  0  0  0  0  0  0  0  0  0  0
  175.5784  163.0890  107.8052 C   0  0  0  0  0  0  0  0  0  0  0  0
  176.7502  162.9963  106.8582 C   0  0  0  0  0  0  0  0  0  0  0  0
  177.3499  161.6307  106.8083 C   0  0  0  0  0  0  0  0  0  0  0  0
  178.1285  161.4012  108.0387 N   0  0  0  0  0  0  0  0  0  0  0  0
  179.1668  162.1347  108.4396 C   0  0  0  0  0  0  0  0  0  0  0  0
  179.6076  161.6313  109.6411 C   0  0  0  0  0  0  0  0  0  0  0  0
  178.8154  160.5680  109.9724 C   0  0  0  0  0  0  0  0  0  0  0  0
  178.7746  159.6847  111.0289 C   0  0  0  0  0  0  0  0  0  0  0  0
  177.8162  158.6563  111.0882 C   0  0  0  0  0  0  0  0  0  0  0  0
  176.9265  158.5810  110.0411 C   0  0  0  0  0  0  0  0  0  0  0  0
  176.9285  159.4367  108.9725 C   0  0  0  0  0  0  0  0  0  0  0  0
  177.8813  160.4405  108.9366 C   0  0  0  0  0  0  0  0  0  0  0  0
  177.8435  157.8395  112.2232 N   0  0  0  0  0  0  0  0  0  0  0  0
  178.5910  156.6933  112.2388 C   0  0  0  0  0  0  0  0  0  0  0  0
  179.3524  156.2589  111.3335 O   0  0  0  0  0  0  0  0  0  0  0  0
  178.3779  156.0900  113.4029 N   0  0  0  0  0  0  0  0  0  0  0  0
  177.5401  156.8083  114.0994 N   0  0  0  0  0  0  0  0  0  0  0  0
  177.1893  157.9335  113.3591 C   0  0  0  0  0  0  0  0  0  0  0  0
  176.2143  158.8983  113.8549 C   0  0  0  0  0  0  0  0  0  0  0  0
  176.6340  160.2294  114.0484 C   0  0  0  0  0  0  0  0  0  0  0  0
  175.7912  161.2252  114.4711 C   0  0  0  0  0  0  0  0  0  0  0  0
  176.2771  162.6056  114.6744 C   0  0  0  0  0  0  0  0  0  0  0  0
  177.7945  162.6198  114.5322 C   0  0  0  0  0  0  0  0  0  0  0  0
  175.9286  163.1887  116.0147 C   0  0  0  0  0  0  0  0  0  0  0  0
  174.4767  160.9327  114.7211 C   0  0  0  0  0  0  0  0  0  0  0  0
  173.5688  161.9017  115.1541 O   0  0  0  0  0  0  0  0  0  0  0  0
  174.0198  159.6556  114.5466 C   0  0  0  0  0  0  0  0  0  0  0  0
  174.9079  158.6512  114.1109 C   0  0  0  0  0  0  0  0  0  0  0  0
  174.3825  157.3687  113.9425 O   0  0  0  0  0  0  0  0  0  0  0  0
  174.4939  162.2122  107.2059 C   0  0  0  0  0  0  0  0  0  0  0  0
  173.1561  162.9174  107.1240 C   0  0  0  0  0  0  0  0  0  0  0  0
  169.2921  164.9612  109.9064 C   0  0  0  0  0  0  0  0  0  0  0  0
  168.4156  165.9764  109.5985 C   0  0  0  0  0  0  0  0  0  0  0  0
  1  2  1  0
  2  3  1  0
  3  4  2  0
  4  5  1  0
  5  6  1  0
  6  7  1  0
  7  8  2  0
  8  9  1  0
  9 10  2  0
 10 11  1  0
 11 12  1  0
 12 13  1  0
 13 14  2  0
 13 15  1  0
 15 16  1  1
 15 17  1  0
 17 18  1  0
 10 19  1  0
 19 20  2  0
  7 21  1  0
 21 22  2  0
 22 23  1  0
 23 24  2  0
 24 25  1  0
 25 26  2  0
 26 27  1  0
 27 28  1  0
 28 29  2  0
 28 30  1  0
 30 31  1  0
 31 32  1  0
 32 33  1  0
 33 34  1  0
 34 35  1  0
 35 36  1  0
 36 37  1  0
 37 38  2  0
 38 39  1  0
 39 40  2  0
 40 41  1  0
 41 42  2  0
 42 43  1  0
 43 44  2  0
 41 45  1  0
 45 46  1  0
 46 47  2  0
 46 48  1  0
 48 49  1  0
 49 50  2  0
 50 51  1  0
 51 52  2  0
 52 53  1  0
 53 54  1  0
 54 55  1  0
 54 56  1  0
 53 57  2  0
 57 58  1  0
 57 59  1  0
 59 60  2  0
 60 61  1  0
 33 62  1  0
 62 63  1  0
 26 64  1  0
 64 65  2  0
 65  3  1  0
 21  4  1  0
 65 23  1  0
 19  6  1  0
 63 30  1  0
 15  9  1  0
 44 36  1  0
 50 45  1  0
 60 51  1  0
 44 39  1  0
M  END
$$$$
