
     RDKit          3D

 65 74  0  0  0  0  0  0  0  0999 V2000
  131.1461  160.5679  152.9296 C   0  0  0  0  0  0  0  0  0  0  0  0
  132.6315  160.7698  152.9464 C   0  0  0  0  0  0  0  0  0  0  0  0
  133.1521  161.2252  154.2394 C   0  0  0  0  0  0  0  0  0  0  0  0
  133.0290  160.4517  155.3956 C   0  0  0  0  0  0  0  0  0  0  0  0
  132.4159  159.1233  155.5984 C   0  0  0  0  0  0  0  0  0  0  0  0
  132.6205  158.8463  157.0079 N   0  0  0  0  0  0  0  0  0  0  0  0
  133.2513  159.8580  157.6139 C   0  0  0  0  0  0  0  0  0  0  0  0
  133.5424  159.7841  158.9814 C   0  0  0  0  0  0  0  0  0  0  0  0
  133.1897  158.6842  159.7151 C   0  0  0  0  0  0  0  0  0  0  0  0
  132.5405  157.6501  159.0768 C   0  0  0  0  0  0  0  0  0  0  0  0
  132.1382  156.4248  159.8513 C   0  0  0  0  0  0  0  0  0  0  0  0
  131.7596  156.8120  161.1432 O   0  0  0  0  0  0  0  0  0  0  0  0
  132.2504  157.9457  161.7698 C   0  0  0  0  0  0  0  0  0  0  0  0
  131.7470  158.4771  162.7830 O   0  0  0  0  0  0  0  0  0  0  0  0
  133.4764  158.5536  161.1606 C   0  0  1  0  0  0  0  0  0  0  0  0
  134.5051  157.6275  161.3540 O   0  0  0  0  0  0  0  0  0  0  0  0
  133.7952  159.8867  161.7618 C   0  0  0  0  0  0  0  0  0  0  0  0
  132.5333  160.7079  161.9321 C   0  0  0  0  0  0  0  0  0  0  0  0
  132.2744  157.7636  157.7356 C   0  0  0  0  0  0  0  0  0  0  0  0
  131.6757  156.7988  157.1698 O   0  0  0  0  0  0  0  0  0  0  0  0
  133.5194  160.8883  156.6052 C   0  0  0  0  0  0  0  0  0  0  0  0
  134.1312  162.0697  156.7184 N   0  0  0  0  0  0  0  0  0  0  0  0
  134.2714  162.8519  155.6205 C   0  0  0  0  0  0  0  0  0  0  0  0
  134.9101  164.0729  155.7576 C   0  0  0  0  0  0  0  0  0  0  0  0
  135.0756  164.9059  154.6545 C   0  0  0  0  0  0  0  0  0  0  0  0
  134.6081  164.5289  153.4158 C   0  0  0  0  0  0  0  0  0  0  0  0
  134.7934  165.3845  152.3447 O   0  0  0  0  0  0  0  0  0  0  0  0
  134.6041  166.7489  152.5098 C   0  0  0  0  0  0  0  0  0  0  0  0
  133.4910  167.1113  152.9657 O   0  0  0  0  0  0  0  0  0  0  0  0
  135.6260  167.6942  152.1779 N   0  0  0  0  0  0  0  0  0  0  0  0
  135.3261  169.0641  151.9200 C   0  0  0  0  0  0  0  0  0  0  0  0
  136.5076  169.9191  152.2977 C   0  0  0  0  0  0  0  0  0  0  0  0
  137.3168  169.3717  153.4449 C   0  0  0  0  0  0  0  0  0  0  0  0
  138.6042  170.1545  153.5370 C   0  0  0  0  0  0  0  0  0  0  0  0
  139.6618  169.4435  154.3136 C   0  0  0  0  0  0  0  0  0  0  0  0
  140.8408  170.3197  154.4358 N   0  0  0  0  0  0  0  0  0  0  0  0
  141.2404  171.2031  153.5213 C   0  0  0  0  0  0  0  0  0  0  0  0
  142.3546  171.8470  154.0066 C   0  0  0  0  0  0  0  0  0  0  0  0
  142.6335  171.3387  155.2442 C   0  0  0  0  0  0  0  0  0  0  0  0
  143.6043  171.5787  156.1919 C   0  0  0  0  0  0  0  0  0  0  0  0
  143.6362  170.8673  157.4053 C   0  0  0  0  0  0  0  0  0  0  0  0
  142.6511  169.9252  157.5943 C   0  0  0  0  0  0  0  0  0  0  0  0
  141.6667  169.6543  156.6823 C   0  0  0  0  0  0  0  0  0  0  0  0
  141.6562  170.3672  155.4956 C   0  0  0  0  0  0  0  0  0  0  0  0
  144.6441  171.2168  158.3098 N   0  0  0  0  0  0  0  0  0  0  0  0
  145.9351  170.8111  158.1053 C   0  0  0  0  0  0  0  0  0  0  0  0
  146.3920  170.1636  157.1255 O   0  0  0  0  0  0  0  0  0  0  0  0
  146.6554  171.2239  159.1421 N   0  0  0  0  0  0  0  0  0  0  0  0
  145.8721  171.8613  159.9688 N   0  0  0  0  0  0  0  0  0  0  0  0
  144.5807  171.8676  159.4497 C   0  0  0  0  0  0  0  0  0  0  0  0
  143.4671  172.4572  160.1843 C   0  0  0  0  0  0  0  0  0  0  0  0
  143.0200  173.7373  159.8009 C   0  0  0  0  0  0  0  0  0  0  0  0
  141.9565  174.3668  160.3952 C   0  0  0  0  0  0  0  0  0  0  0  0
  141.5299  175.7162  159.9707 C   0  0  0  0  0  0  0  0  0  0  0  0
  141.8219  175.8804  158.4839 C   0  0  0  0  0  0  0  0  0  0  0  0
  142.2106  176.8358  160.7062 C   0  0  0  0  0  0  0  0  0  0  0  0
  141.2841  173.7385  161.4096 C   0  0  0  0  0  0  0  0  0  0  0  0
  140.1942  174.3266  162.0552 O   0  0  0  0  0  0  0  0  0  0  0  0
  141.6783  172.4940  161.8172 C   0  0  0  0  0  0  0  0  0  0  0  0
  142.7748  171.8696  161.1887 C   0  0  0  0  0  0  0  0  0  0  0  0
  143.1255  170.5964  161.6415 O   0  0  0  0  0  0  0  0  0  0  0  0
  137.7280  167.9231  153.2547 C   0  0  0  0  0  0  0  0  0  0  0  0
  137.0050  167.2609  152.1005 C   0  0  0  0  0  0  0  0  0  0  0  0
  133.9745  163.2981  153.3230 C   0  0  0  0  0  0  0  0  0  0  0  0
  133.7872  162.4398  154.3822 C   0  0  0  0  0  0  0  0  0  0  0  0
  1  2  1  0
  2  3  1  0
  3  4  2  0
  4  5  1  0
  5  6  1  0
  6  7  1  0
  7  8  2  0
  8  9  1  0
  9 10  2  0
 10 11  1  0
 11 12  1  0
 12 13  1  0
 13 14  2  0
 13 15  1  0
 15 16  1  6
 15 17  1  0
 17 18  1  0
 10 19  1  0
 19 20  2  0
  7 21  1  0
 21 22  2  0
 22 23  1  0
 23 24  2  0
 24 25  1  0
 25 26  2  0
 26 27  1  0
 27 28  1  0
 28 29  2  0
 28 30  1  0
 30 31  1  0
 31 32  1  0
 32 33  1  0
 33 34  1  0
 34 35  1  0
 35 36  1  0
 36 37  1  0
 37 38  2  0
 38 39  1  0
 39 40  2  0
 40 41  1  0
 41 42  2  0
 42 43  1  0
 43 44  2  0
 41 45  1  0
 45 46  1  0
 46 47  2  0
 46 48  1  0
 48 49  1  0
 49 50  2  0
 50 51  1  0
 51 52  2  0
 52 53  1  0
 53 54  1  0
 54 55  1  0
 54 56  1  0
 53 57  2  0
 57 58  1  0
 57 59  1  0
 59 60  2  0
 60 61  1  0
 33 62  1  0
 62 63  1  0
 26 64  1  0
 64 65  2  0
 65  3  1  0
 21  4  1  0
 65 23  1  0
 19  6  1  0
 63 30  1  0
 15  9  1  0
 44 36  1  0
 50 45  1  0
 60 51  1  0
 44 39  1  0
M  END
$$$$
