
     RDKit          3D

 65 74  0  0  0  0  0  0  0  0999 V2000
  206.9312  130.9566  133.0564 C   0  0  0  0  0  0  0  0  0  0  0  0
  205.9542  130.2889  133.9767 C   0  0  0  0  0  0  0  0  0  0  0  0
  205.9256  128.8283  133.8502 C   0  0  0  0  0  0  0  0  0  0  0  0
  206.8004  128.1462  133.0018 C   0  0  0  0  0  0  0  0  0  0  0  0
  207.8644  128.6554  132.1130 C   0  0  0  0  0  0  0  0  0  0  0  0
  208.4306  127.4621  131.5125 N   0  0  0  0  0  0  0  0  0  0  0  0
  207.8047  126.3605  131.9409 C   0  0  0  0  0  0  0  0  0  0  0  0
  208.2039  125.1016  131.4757 C   0  0  0  0  0  0  0  0  0  0  0  0
  209.2331  124.9781  130.5825 C   0  0  0  0  0  0  0  0  0  0  0  0
  209.8681  126.1218  130.1504 C   0  0  0  0  0  0  0  0  0  0  0  0
  211.0042  126.0243  129.1693 C   0  0  0  0  0  0  0  0  0  0  0  0
  210.7407  124.9775  128.2766 O   0  0  0  0  0  0  0  0  0  0  0  0
  209.9587  123.8815  128.6024 C   0  0  0  0  0  0  0  0  0  0  0  0
  209.4723  123.0794  127.7764 O   0  0  0  0  0  0  0  0  0  0  0  0
  209.6968  123.6729  130.0625 C   0  0  1  0  0  0  0  0  0  0  0  0
  210.9300  123.3500  130.6352 O   0  0  0  0  0  0  0  0  0  0  0  0
  208.6684  122.6112  130.2982 C   0  0  0  0  0  0  0  0  0  0  0  0
  208.8837  121.9531  131.6458 C   0  0  0  0  0  0  0  0  0  0  0  0
  209.4450  127.3352  130.6313 C   0  0  0  0  0  0  0  0  0  0  0  0
  210.0449  128.3743  130.2189 O   0  0  0  0  0  0  0  0  0  0  0  0
  206.7650  126.7749  132.8885 C   0  0  0  0  0  0  0  0  0  0  0  0
  205.8910  126.0450  133.5858 N   0  0  0  0  0  0  0  0  0  0  0  0
  205.0237  126.6678  134.4207 C   0  0  0  0  0  0  0  0  0  0  0  0
  204.1261  125.8936  135.1365 C   0  0  0  0  0  0  0  0  0  0  0  0
  203.2191  126.4939  136.0056 C   0  0  0  0  0  0  0  0  0  0  0  0
  203.2019  127.8612  136.1652 C   0  0  0  0  0  0  0  0  0  0  0  0
  202.2861  128.4188  137.0393 O   0  0  0  0  0  0  0  0  0  0  0  0
  202.5058  128.3486  138.4073 C   0  0  0  0  0  0  0  0  0  0  0  0
  202.5773  127.1984  138.9073 O   0  0  0  0  0  0  0  0  0  0  0  0
  202.6443  129.5274  139.2068 N   0  0  0  0  0  0  0  0  0  0  0  0
  203.0550  129.4652  140.5708 C   0  0  0  0  0  0  0  0  0  0  0  0
  203.7787  130.7343  140.9384 C   0  0  0  0  0  0  0  0  0  0  0  0
  204.5342  131.3606  139.7950 C   0  0  0  0  0  0  0  0  0  0  0  0
  204.9706  132.7441  140.2123 C   0  0  0  0  0  0  0  0  0  0  0  0
  205.6640  133.4885  139.1204 C   0  0  0  0  0  0  0  0  0  0  0  0
  204.8750  134.6852  138.7768 N   0  0  0  0  0  0  0  0  0  0  0  0
  203.7827  135.0969  139.4203 C   0  0  0  0  0  0  0  0  0  0  0  0
  203.3492  136.2593  138.8268 C   0  0  0  0  0  0  0  0  0  0  0  0
  204.2012  136.5552  137.7998 C   0  0  0  0  0  0  0  0  0  0  0  0
  204.2759  137.5654  136.8659 C   0  0  0  0  0  0  0  0  0  0  0  0
  205.2974  137.5958  135.8989 C   0  0  0  0  0  0  0  0  0  0  0  0
  206.2130  136.5690  135.9362 C   0  0  0  0  0  0  0  0  0  0  0  0
  206.1790  135.5464  136.8456 C   0  0  0  0  0  0  0  0  0  0  0  0
  205.1642  135.5382  137.7873 C   0  0  0  0  0  0  0  0  0  0  0  0
  205.2981  138.6859  135.0228 N   0  0  0  0  0  0  0  0  0  0  0  0
  206.1599  139.7319  135.2129 C   0  0  0  0  0  0  0  0  0  0  0  0
  207.0514  139.8435  136.0965 O   0  0  0  0  0  0  0  0  0  0  0  0
  205.8968  140.6438  134.2836 N   0  0  0  0  0  0  0  0  0  0  0  0
  204.9200  140.2090  133.5353 N   0  0  0  0  0  0  0  0  0  0  0  0
  204.5261  138.9554  133.9940 C   0  0  0  0  0  0  0  0  0  0  0  0
  203.4073  138.2402  133.3907 C   0  0  0  0  0  0  0  0  0  0  0  0
  203.6201  136.9172  132.9548 C   0  0  0  0  0  0  0  0  0  0  0  0
  202.6291  136.1403  132.4118 C   0  0  0  0  0  0  0  0  0  0  0  0
  202.9000  134.7616  131.9547 C   0  0  0  0  0  0  0  0  0  0  0  0
  202.9064  134.7401  130.4307 C   0  0  0  0  0  0  0  0  0  0  0  0
  201.8982  133.7481  132.4313 C   0  0  0  0  0  0  0  0  0  0  0  0
  201.3670  136.6555  132.2795 C   0  0  0  0  0  0  0  0  0  0  0  0
  200.3154  135.9158  131.7341 O   0  0  0  0  0  0  0  0  0  0  0  0
  201.1089  137.9345  132.6894 C   0  0  0  0  0  0  0  0  0  0  0  0
  202.1463  138.7111  133.2445 C   0  0  0  0  0  0  0  0  0  0  0  0
  201.8211  140.0060  133.6526 O   0  0  0  0  0  0  0  0  0  0  0  0
  203.6894  131.5535  138.5488 C   0  0  0  0  0  0  0  0  0  0  0  0
  202.3647  130.8237  138.6265 C   0  0  0  0  0  0  0  0  0  0  0  0
  204.1180  128.5987  135.4292 C   0  0  0  0  0  0  0  0  0  0  0  0
  205.0336  128.0529  134.5588 C   0  0  0  0  0  0  0  0  0  0  0  0
  1  2  1  0
  2  3  1  0
  3  4  2  0
  4  5  1  0
  5  6  1  0
  6  7  1  0
  7  8  2  0
  8  9  1  0
  9 10  2  0
 10 11  1  0
 11 12  1  0
 12 13  1  0
 13 14  2  0
 13 15  1  0
 15 16  1  1
 15 17  1  0
 17 18  1  0
 10 19  1  0
 19 20  2  0
  7 21  1  0
 21 22  2  0
 22 23  1  0
 23 24  2  0
 24 25  1  0
 25 26  2  0
 26 27  1  0
 27 28  1  0
 28 29  2  0
 28 30  1  0
 30 31  1  0
 31 32  1  0
 32 33  1  0
 33 34  1  0
 34 35  1  0
 35 36  1  0
 36 37  1  0
 37 38  2  0
 38 39  1  0
 39 40  2  0
 40 41  1  0
 41 42  2  0
 42 43  1  0
 43 44  2  0
 41 45  1  0
 45 46  1  0
 46 47  2  0
 46 48  1  0
 48 49  1  0
 49 50  2  0
 50 51  1  0
 51 52  2  0
 52 53  1  0
 53 54  1  0
 54 55  1  0
 54 56  1  0
 53 57  2  0
 57 58  1  0
 57 59  1  0
 59 60  2  0
 60 61  1  0
 33 62  1  0
 62 63  1  0
 26 64  1  0
 64 65  2  0
 65  3  1  0
 21  4  1  0
 65 23  1  0
 19  6  1  0
 63 30  1  0
 15  9  1  0
 44 36  1  0
 50 45  1  0
 60 51  1  0
 44 39  1  0
M  END
$$$$
