
     RDKit          3D

 65 74  0  0  0  0  0  0  0  0999 V2000
  127.1976  144.1512  138.2779 C   0  0  0  0  0  0  0  0  0  0  0  0
  128.3770  143.8789  137.3933 C   0  0  0  0  0  0  0  0  0  0  0  0
  128.4214  144.7180  136.1916 C   0  0  0  0  0  0  0  0  0  0  0  0
  128.0917  146.0746  136.2292 C   0  0  0  0  0  0  0  0  0  0  0  0
  127.6634  146.9252  137.3582 C   0  0  0  0  0  0  0  0  0  0  0  0
  127.4913  148.2404  136.7701 N   0  0  0  0  0  0  0  0  0  0  0  0
  127.7514  148.2223  135.4583 C   0  0  0  0  0  0  0  0  0  0  0  0
  127.6410  149.3976  134.7054 C   0  0  0  0  0  0  0  0  0  0  0  0
  127.2686  150.5752  135.2943 C   0  0  0  0  0  0  0  0  0  0  0  0
  127.0039  150.5781  136.6464 C   0  0  0  0  0  0  0  0  0  0  0  0
  126.5926  151.8545  137.3279 C   0  0  0  0  0  0  0  0  0  0  0  0
  125.7993  152.6008  136.4470 O   0  0  0  0  0  0  0  0  0  0  0  0
  125.9021  152.5070  135.0688 C   0  0  0  0  0  0  0  0  0  0  0  0
  125.0492  152.9283  134.2579 O   0  0  0  0  0  0  0  0  0  0  0  0
  127.1404  151.8454  134.5464 C   0  0  1  0  0  0  0  0  0  0  0  0
  128.2012  152.6937  134.8754 O   0  0  0  0  0  0  0  0  0  0  0  0
  127.0568  151.5890  133.0742 C   0  0  0  0  0  0  0  0  0  0  0  0
  125.8915  152.3449  132.4688 C   0  0  0  0  0  0  0  0  0  0  0  0
  127.1240  149.4042  137.3465 C   0  0  0  0  0  0  0  0  0  0  0  0
  126.8750  149.4315  138.5901 O   0  0  0  0  0  0  0  0  0  0  0  0
  128.1349  146.8540  135.0956 C   0  0  0  0  0  0  0  0  0  0  0  0
  128.4933  146.3411  133.9161 N   0  0  0  0  0  0  0  0  0  0  0  0
  128.8210  145.0284  133.8357 C   0  0  0  0  0  0  0  0  0  0  0  0
  129.1917  144.5153  132.6041 C   0  0  0  0  0  0  0  0  0  0  0  0
  129.5367  143.1724  132.4785 C   0  0  0  0  0  0  0  0  0  0  0  0
  129.5142  142.3382  133.5735 C   0  0  0  0  0  0  0  0  0  0  0  0
  129.8651  141.0105  133.4072 O   0  0  0  0  0  0  0  0  0  0  0  0
  130.7789  140.6552  132.4257 C   0  0  0  0  0  0  0  0  0  0  0  0
  131.8746  141.2698  132.4283 O   0  0  0  0  0  0  0  0  0  0  0  0
  130.4871  139.6398  131.4604 N   0  0  0  0  0  0  0  0  0  0  0  0
  129.1514  139.2157  131.1976 C   0  0  0  0  0  0  0  0  0  0  0  0
  129.0441  138.7401  129.7722 C   0  0  0  0  0  0  0  0  0  0  0  0
  129.9709  139.4498  128.8192 C   0  0  0  0  0  0  0  0  0  0  0  0
  129.9702  138.7027  127.5076 C   0  0  0  0  0  0  0  0  0  0  0  0
  130.9602  139.2435  126.5307 C   0  0  0  0  0  0  0  0  0  0  0  0
  130.3547  139.2539  125.1869 N   0  0  0  0  0  0  0  0  0  0  0  0
  129.1659  139.7747  124.8831 C   0  0  0  0  0  0  0  0  0  0  0  0
  128.9633  139.6190  123.5318 C   0  0  0  0  0  0  0  0  0  0  0  0
  130.0569  138.9884  123.0083 C   0  0  0  0  0  0  0  0  0  0  0  0
  130.4200  138.5695  121.7469 C   0  0  0  0  0  0  0  0  0  0  0  0
  131.6467  137.9209  121.5146 C   0  0  0  0  0  0  0  0  0  0  0  0
  132.4601  137.7293  122.6079 C   0  0  0  0  0  0  0  0  0  0  0  0
  132.1417  138.1296  123.8777 C   0  0  0  0  0  0  0  0  0  0  0  0
  130.9291  138.7657  124.0814 C   0  0  0  0  0  0  0  0  0  0  0  0
  131.9289  137.5706  120.1903 N   0  0  0  0  0  0  0  0  0  0  0  0
  131.9055  138.5148  119.1998 C   0  0  0  0  0  0  0  0  0  0  0  0
  131.7005  139.7522  119.3211 O   0  0  0  0  0  0  0  0  0  0  0  0
  132.1419  137.8958  118.0486 N   0  0  0  0  0  0  0  0  0  0  0  0
  132.3094  136.6232  118.2842 N   0  0  0  0  0  0  0  0  0  0  0  0
  132.1781  136.3982  119.6514 C   0  0  0  0  0  0  0  0  0  0  0  0
  132.2540  135.0544  120.2132 C   0  0  0  0  0  0  0  0  0  0  0  0
  131.0625  134.4536  120.6658 C   0  0  0  0  0  0  0  0  0  0  0  0
  131.0128  133.1805  121.1729 C   0  0  0  0  0  0  0  0  0  0  0  0
  129.7430  132.5944  121.6494 C   0  0  0  0  0  0  0  0  0  0  0  0
  128.5835  133.4162  121.0987 C   0  0  0  0  0  0  0  0  0  0  0  0
  129.6115  132.5462  123.1455 C   0  0  0  0  0  0  0  0  0  0  0  0
  132.1637  132.4420  121.2505 C   0  0  0  0  0  0  0  0  0  0  0  0
  132.1793  131.1407  121.7574 O   0  0  0  0  0  0  0  0  0  0  0  0
  133.3460  132.9798  120.8223 C   0  0  0  0  0  0  0  0  0  0  0  0
  133.3685  134.2909  120.3051 C   0  0  0  0  0  0  0  0  0  0  0  0
  134.6025  134.7830  119.8758 O   0  0  0  0  0  0  0  0  0  0  0  0
  131.4158  139.4656  129.2838 C   0  0  0  0  0  0  0  0  0  0  0  0
  131.5679  139.0203  130.7233 C   0  0  0  0  0  0  0  0  0  0  0  0
  129.1371  142.8931  134.7878 C   0  0  0  0  0  0  0  0  0  0  0  0
  128.7881  144.2127  134.9632 C   0  0  0  0  0  0  0  0  0  0  0  0
  1  2  1  0
  2  3  1  0
  3  4  2  0
  4  5  1  0
  5  6  1  0
  6  7  1  0
  7  8  2  0
  8  9  1  0
  9 10  2  0
 10 11  1  0
 11 12  1  0
 12 13  1  0
 13 14  2  0
 13 15  1  0
 15 16  1  6
 15 17  1  0
 17 18  1  0
 10 19  1  0
 19 20  2  0
  7 21  1  0
 21 22  2  0
 22 23  1  0
 23 24  2  0
 24 25  1  0
 25 26  2  0
 26 27  1  0
 27 28  1  0
 28 29  2  0
 28 30  1  0
 30 31  1  0
 31 32  1  0
 32 33  1  0
 33 34  1  0
 34 35  1  0
 35 36  1  0
 36 37  1  0
 37 38  2  0
 38 39  1  0
 39 40  2  0
 40 41  1  0
 41 42  2  0
 42 43  1  0
 43 44  2  0
 41 45  1  0
 45 46  1  0
 46 47  2  0
 46 48  1  0
 48 49  1  0
 49 50  2  0
 50 51  1  0
 51 52  2  0
 52 53  1  0
 53 54  1  0
 54 55  1  0
 54 56  1  0
 53 57  2  0
 57 58  1  0
 57 59  1  0
 59 60  2  0
 60 61  1  0
 33 62  1  0
 62 63  1  0
 26 64  1  0
 64 65  2  0
 65  3  1  0
 21  4  1  0
 65 23  1  0
 19  6  1  0
 63 30  1  0
 15  9  1  0
 44 36  1  0
 50 45  1  0
 60 51  1  0
 44 39  1  0
M  END
$$$$
