
     RDKit          3D

 65 74  0  0  0  0  0  0  0  0999 V2000
  131.1369  140.7095  121.4010 C   0  0  0  0  0  0  0  0  0  0  0  0
  130.7301  139.8835  122.5840 C   0  0  0  0  0  0  0  0  0  0  0  0
  131.8609  139.3524  123.3517 C   0  0  0  0  0  0  0  0  0  0  0  0
  132.7394  140.1902  124.0422 C   0  0  0  0  0  0  0  0  0  0  0  0
  132.7585  141.6616  124.1698 C   0  0  0  0  0  0  0  0  0  0  0  0
  133.8970  141.9315  125.0278 N   0  0  0  0  0  0  0  0  0  0  0  0
  134.5203  140.8006  125.3759 C   0  0  0  0  0  0  0  0  0  0  0  0
  135.6483  140.8481  126.2039 C   0  0  0  0  0  0  0  0  0  0  0  0
  136.1279  142.0427  126.6678 C   0  0  0  0  0  0  0  0  0  0  0  0
  135.4753  143.1992  126.3006 C   0  0  0  0  0  0  0  0  0  0  0  0
  135.9738  144.5307  126.7921 C   0  0  0  0  0  0  0  0  0  0  0  0
  137.3726  144.4934  126.8545 O   0  0  0  0  0  0  0  0  0  0  0  0
  138.0926  143.3258  127.0470 C   0  0  0  0  0  0  0  0  0  0  0  0
  139.3177  143.1979  126.8344 O   0  0  0  0  0  0  0  0  0  0  0  0
  137.3128  142.1488  127.5475 C   0  0  1  0  0  0  0  0  0  0  0  0
  136.9075  142.4757  128.8444 O   0  0  0  0  0  0  0  0  0  0  0  0
  138.1188  140.8883  127.5076 C   0  0  0  0  0  0  0  0  0  0  0  0
  139.3371  141.0085  128.4004 C   0  0  0  0  0  0  0  0  0  0  0  0
  134.3739  143.1075  125.4875 C   0  0  0  0  0  0  0  0  0  0  0  0
  133.7896  144.1858  125.1628 O   0  0  0  0  0  0  0  0  0  0  0  0
  133.7991  139.6826  124.7589 C   0  0  0  0  0  0  0  0  0  0  0  0
  134.0273  138.3684  124.8201 N   0  0  0  0  0  0  0  0  0  0  0  0
  133.1986  137.5201  124.1638 C   0  0  0  0  0  0  0  0  0  0  0  0
  133.4507  136.1606  124.2405 C   0  0  0  0  0  0  0  0  0  0  0  0
  132.6230  135.2553  123.5819 C   0  0  0  0  0  0  0  0  0  0  0  0
  131.5457  135.6974  122.8476 C   0  0  0  0  0  0  0  0  0  0  0  0
  130.7469  134.7659  122.2091 O   0  0  0  0  0  0  0  0  0  0  0  0
  130.1316  133.7635  122.9448 C   0  0  0  0  0  0  0  0  0  0  0  0
  130.7566  132.6789  123.0507 O   0  0  0  0  0  0  0  0  0  0  0  0
  128.8503  133.9569  123.5522 N   0  0  0  0  0  0  0  0  0  0  0  0
  127.9166  132.8884  123.6912 C   0  0  0  0  0  0  0  0  0  0  0  0
  127.0509  133.1285  124.9005 C   0  0  0  0  0  0  0  0  0  0  0  0
  127.7457  133.8716  126.0121 C   0  0  0  0  0  0  0  0  0  0  0  0
  126.7096  134.2890  127.0275 C   0  0  0  0  0  0  0  0  0  0  0  0
  127.2910  134.5497  128.3769 C   0  0  0  0  0  0  0  0  0  0  0  0
  127.7146  135.9594  128.4550 N   0  0  0  0  0  0  0  0  0  0  0  0
  127.1586  136.9676  127.7833 C   0  0  0  0  0  0  0  0  0  0  0  0
  127.8056  138.1275  128.1401 C   0  0  0  0  0  0  0  0  0  0  0  0
  128.7758  137.8104  129.0490 C   0  0  0  0  0  0  0  0  0  0  0  0
  129.7231  138.5307  129.7432 C   0  0  0  0  0  0  0  0  0  0  0  0
  130.6160  137.9031  130.6311 C   0  0  0  0  0  0  0  0  0  0  0  0
  130.4926  136.5394  130.7689 C   0  0  0  0  0  0  0  0  0  0  0  0
  129.5665  135.7838  130.1015 C   0  0  0  0  0  0  0  0  0  0  0  0
  128.6989  136.4240  129.2331 C   0  0  0  0  0  0  0  0  0  0  0  0
  131.5126  138.7348  131.3097 N   0  0  0  0  0  0  0  0  0  0  0  0
  132.8610  138.6175  131.1076 C   0  0  0  0  0  0  0  0  0  0  0  0
  133.4548  137.8482  130.3053 O   0  0  0  0  0  0  0  0  0  0  0  0
  133.4658  139.4754  131.9217 N   0  0  0  0  0  0  0  0  0  0  0  0
  132.5572  140.1110  132.6098 N   0  0  0  0  0  0  0  0  0  0  0  0
  131.3004  139.6500  132.2286 C   0  0  0  0  0  0  0  0  0  0  0  0
  130.0841  140.1338  132.8717 C   0  0  0  0  0  0  0  0  0  0  0  0
  129.8458  141.5225  132.8861 C   0  0  0  0  0  0  0  0  0  0  0  0
  128.7163  142.0817  133.4265 C   0  0  0  0  0  0  0  0  0  0  0  0
  128.5134  143.5452  133.4326 C   0  0  0  0  0  0  0  0  0  0  0  0
  129.3795  144.1674  132.3438 C   0  0  0  0  0  0  0  0  0  0  0  0
  128.8564  144.2078  134.7370 C   0  0  0  0  0  0  0  0  0  0  0  0
  127.7634  141.2697  133.9820 C   0  0  0  0  0  0  0  0  0  0  0  0
  126.5923  141.7776  134.5487 O   0  0  0  0  0  0  0  0  0  0  0  0
  127.9472  139.9145  133.9912 C   0  0  0  0  0  0  0  0  0  0  0  0
  129.1176  139.3661  133.4285 C   0  0  0  0  0  0  0  0  0  0  0  0
  129.2458  137.9763  133.4593 O   0  0  0  0  0  0  0  0  0  0  0  0
  128.4134  135.1552  125.5532 C   0  0  0  0  0  0  0  0  0  0  0  0
  128.4812  135.2672  124.0444 C   0  0  0  0  0  0  0  0  0  0  0  0
  131.3296  137.0669  122.7973 C   0  0  0  0  0  0  0  0  0  0  0  0
  132.1176  138.0008  123.4304 C   0  0  0  0  0  0  0  0  0  0  0  0
  1  2  1  0
  2  3  1  0
  3  4  2  0
  4  5  1  0
  5  6  1  0
  6  7  1  0
  7  8  2  0
  8  9  1  0
  9 10  2  0
 10 11  1  0
 11 12  1  0
 12 13  1  0
 13 14  2  0
 13 15  1  0
 15 16  1  1
 15 17  1  0
 17 18  1  0
 10 19  1  0
 19 20  2  0
  7 21  1  0
 21 22  2  0
 22 23  1  0
 23 24  2  0
 24 25  1  0
 25 26  2  0
 26 27  1  0
 27 28  1  0
 28 29  2  0
 28 30  1  0
 30 31  1  0
 31 32  1  0
 32 33  1  0
 33 34  1  0
 34 35  1  0
 35 36  1  0
 36 37  1  0
 37 38  2  0
 38 39  1  0
 39 40  2  0
 40 41  1  0
 41 42  2  0
 42 43  1  0
 43 44  2  0
 41 45  1  0
 45 46  1  0
 46 47  2  0
 46 48  1  0
 48 49  1  0
 49 50  2  0
 50 51  1  0
 51 52  2  0
 52 53  1  0
 53 54  1  0
 54 55  1  0
 54 56  1  0
 53 57  2  0
 57 58  1  0
 57 59  1  0
 59 60  2  0
 60 61  1  0
 33 62  1  0
 62 63  1  0
 26 64  1  0
 64 65  2  0
 65  3  1  0
 21  4  1  0
 65 23  1  0
 19  6  1  0
 63 30  1  0
 15  9  1  0
 44 36  1  0
 50 45  1  0
 60 51  1  0
 44 39  1  0
M  END
$$$$
