
     RDKit          3D

 65 74  0  0  0  0  0  0  0  0999 V2000
  182.7647  160.8184  140.5570 C   0  0  0  0  0  0  0  0  0  0  0  0
  183.9228  160.9280  139.6114 C   0  0  0  0  0  0  0  0  0  0  0  0
  185.0255  161.7503  140.1193 C   0  0  0  0  0  0  0  0  0  0  0  0
  185.1974  161.9880  141.4847 C   0  0  0  0  0  0  0  0  0  0  0  0
  184.4078  161.5257  142.6442 C   0  0  0  0  0  0  0  0  0  0  0  0
  185.0964  162.0855  143.7921 N   0  0  0  0  0  0  0  0  0  0  0  0
  186.1540  162.8125  143.4155 C   0  0  0  0  0  0  0  0  0  0  0  0
  186.9524  163.4399  144.3794 C   0  0  0  0  0  0  0  0  0  0  0  0
  186.6669  163.3205  145.7123 C   0  0  0  0  0  0  0  0  0  0  0  0
  185.5743  162.5684  146.0847 C   0  0  0  0  0  0  0  0  0  0  0  0
  185.2305  162.4143  147.5411 C   0  0  0  0  0  0  0  0  0  0  0  0
  185.5280  163.6119  148.2039 O   0  0  0  0  0  0  0  0  0  0  0  0
  186.5023  164.4966  147.7713 C   0  0  0  0  0  0  0  0  0  0  0  0
  186.6125  165.6816  148.1534 O   0  0  0  0  0  0  0  0  0  0  0  0
  187.4794  163.9591  146.7711 C   0  0  1  0  0  0  0  0  0  0  0  0
  188.2254  162.9864  147.4422 O   0  0  0  0  0  0  0  0  0  0  0  0
  188.3430  165.0396  146.1993 C   0  0  0  0  0  0  0  0  0  0  0  0
  187.5114  166.2593  145.8581 C   0  0  0  0  0  0  0  0  0  0  0  0
  184.8185  161.9708  145.1079 C   0  0  0  0  0  0  0  0  0  0  0  0
  183.8175  161.2834  145.4750 O   0  0  0  0  0  0  0  0  0  0  0  0
  186.2347  162.7625  141.9521 C   0  0  0  0  0  0  0  0  0  0  0  0
  187.1160  163.3169  141.1160 N   0  0  0  0  0  0  0  0  0  0  0  0
  186.9852  163.1114  139.7827 C   0  0  0  0  0  0  0  0  0  0  0  0
  187.9099  163.6933  138.9319 C   0  0  0  0  0  0  0  0  0  0  0  0
  187.8120  163.5063  137.5557 C   0  0  0  0  0  0  0  0  0  0  0  0
  186.7979  162.7426  137.0231 C   0  0  0  0  0  0  0  0  0  0  0  0
  186.7362  162.5801  135.6508 O   0  0  0  0  0  0  0  0  0  0  0  0
  187.0810  163.6319  134.8145 C   0  0  0  0  0  0  0  0  0  0  0  0
  186.3468  164.6504  134.8596 O   0  0  0  0  0  0  0  0  0  0  0  0
  188.2158  163.5593  133.9456 N   0  0  0  0  0  0  0  0  0  0  0  0
  189.2122  162.5505  134.0952 C   0  0  0  0  0  0  0  0  0  0  0  0
  189.8330  162.2516  132.7555 C   0  0  0  0  0  0  0  0  0  0  0  0
  188.8909  162.4256  131.5924 C   0  0  0  0  0  0  0  0  0  0  0  0
  189.6943  162.3732  130.3156 C   0  0  0  0  0  0  0  0  0  0  0  0
  188.8425  162.4201  129.0911 C   0  0  0  0  0  0  0  0  0  0  0  0
  189.7112  162.4766  127.9017 N   0  0  0  0  0  0  0  0  0  0  0  0
  190.4073  163.5429  127.5078 C   0  0  0  0  0  0  0  0  0  0  0  0
  191.1150  163.1990  126.3799 C   0  0  0  0  0  0  0  0  0  0  0  0
  190.8382  161.8932  126.0865 C   0  0  0  0  0  0  0  0  0  0  0  0
  191.2352  161.0189  125.0984 C   0  0  0  0  0  0  0  0  0  0  0  0
  190.7575  159.6962  125.0544 C   0  0  0  0  0  0  0  0  0  0  0  0
  189.8784  159.3244  126.0457 C   0  0  0  0  0  0  0  0  0  0  0  0
  189.4577  160.1577  127.0471 C   0  0  0  0  0  0  0  0  0  0  0  0
  189.9416  161.4547  127.0692 C   0  0  0  0  0  0  0  0  0  0  0  0
  191.2538  158.8850  124.0289 N   0  0  0  0  0  0  0  0  0  0  0  0
  190.9239  159.1318  122.7238 C   0  0  0  0  0  0  0  0  0  0  0  0
  190.2281  160.0805  122.2723 O   0  0  0  0  0  0  0  0  0  0  0  0
  191.4743  158.1770  121.9824 N   0  0  0  0  0  0  0  0  0  0  0  0
  192.1239  157.3605  122.7663 N   0  0  0  0  0  0  0  0  0  0  0  0
  191.9944  157.8006  124.0803 C   0  0  0  0  0  0  0  0  0  0  0  0
  192.5654  157.0522  125.1943 C   0  0  0  0  0  0  0  0  0  0  0  0
  193.4337  157.7276  126.0747 C   0  0  0  0  0  0  0  0  0  0  0  0
  193.9932  157.1324  127.1762 C   0  0  0  0  0  0  0  0  0  0  0  0
  194.9104  157.8747  128.0656 C   0  0  0  0  0  0  0  0  0  0  0  0
  194.7232  159.3688  127.8303 C   0  0  0  0  0  0  0  0  0  0  0  0
  196.3628  157.5485  127.8611 C   0  0  0  0  0  0  0  0  0  0  0  0
  193.7064  155.8217  127.4510 C   0  0  0  0  0  0  0  0  0  0  0  0
  194.2445  155.1587  128.5562 O   0  0  0  0  0  0  0  0  0  0  0  0
  192.8674  155.1228  126.6275 C   0  0  0  0  0  0  0  0  0  0  0  0
  192.3058  155.7594  125.5021 C   0  0  0  0  0  0  0  0  0  0  0  0
  191.4503  154.9983  124.7033 O   0  0  0  0  0  0  0  0  0  0  0  0
  188.1885  163.7712  131.5824 C   0  0  0  0  0  0  0  0  0  0  0  0
  188.3665  164.5290  132.8815 C   0  0  0  0  0  0  0  0  0  0  0  0
  185.8935  162.1783  137.9110 C   0  0  0  0  0  0  0  0  0  0  0  0
  185.9477  162.3330  139.2774 C   0  0  0  0  0  0  0  0  0  0  0  0
  1  2  1  0
  2  3  1  0
  3  4  2  0
  4  5  1  0
  5  6  1  0
  6  7  1  0
  7  8  2  0
  8  9  1  0
  9 10  2  0
 10 11  1  0
 11 12  1  0
 12 13  1  0
 13 14  2  0
 13 15  1  0
 15 16  1  1
 15 17  1  0
 17 18  1  0
 10 19  1  0
 19 20  2  0
  7 21  1  0
 21 22  2  0
 22 23  1  0
 23 24  2  0
 24 25  1  0
 25 26  2  0
 26 27  1  0
 27 28  1  0
 28 29  2  0
 28 30  1  0
 30 31  1  0
 31 32  1  0
 32 33  1  0
 33 34  1  0
 34 35  1  0
 35 36  1  0
 36 37  1  0
 37 38  2  0
 38 39  1  0
 39 40  2  0
 40 41  1  0
 41 42  2  0
 42 43  1  0
 43 44  2  0
 41 45  1  0
 45 46  1  0
 46 47  2  0
 46 48  1  0
 48 49  1  0
 49 50  2  0
 50 51  1  0
 51 52  2  0
 52 53  1  0
 53 54  1  0
 54 55  1  0
 54 56  1  0
 53 57  2  0
 57 58  1  0
 57 59  1  0
 59 60  2  0
 60 61  1  0
 33 62  1  0
 62 63  1  0
 26 64  1  0
 64 65  2  0
 65  3  1  0
 21  4  1  0
 65 23  1  0
 19  6  1  0
 63 30  1  0
 15  9  1  0
 44 36  1  0
 50 45  1  0
 60 51  1  0
 44 39  1  0
M  END
$$$$
