
     RDKit          3D

 65 74  0  0  0  0  0  0  0  0999 V2000
  127.6714  145.4277  131.6890 C   0  0  0  0  0  0  0  0  0  0  0  0
  129.1498  145.2715  131.8821 C   0  0  0  0  0  0  0  0  0  0  0  0
  129.8707  144.9049  130.6590 C   0  0  0  0  0  0  0  0  0  0  0  0
  130.3735  145.8704  129.7842 C   0  0  0  0  0  0  0  0  0  0  0  0
  130.3212  147.3449  129.8525 C   0  0  0  0  0  0  0  0  0  0  0  0
  131.0344  147.7835  128.6676 N   0  0  0  0  0  0  0  0  0  0  0  0
  131.4582  146.7417  127.9438 C   0  0  0  0  0  0  0  0  0  0  0  0
  132.1695  146.9557  126.7569 C   0  0  0  0  0  0  0  0  0  0  0  0
  132.4413  148.2240  126.3211 C   0  0  0  0  0  0  0  0  0  0  0  0
  131.9982  149.2869  127.0774 C   0  0  0  0  0  0  0  0  0  0  0  0
  132.2793  150.6953  126.6296 C   0  0  0  0  0  0  0  0  0  0  0  0
  132.2193  150.7444  125.2310 O   0  0  0  0  0  0  0  0  0  0  0  0
  132.4850  149.6521  124.4216 C   0  0  0  0  0  0  0  0  0  0  0  0
  132.1797  149.5673  123.2124 O   0  0  0  0  0  0  0  0  0  0  0  0
  133.1915  148.5056  125.0774 C   0  0  1  0  0  0  0  0  0  0  0  0
  134.4710  148.9694  125.3951 O   0  0  0  0  0  0  0  0  0  0  0  0
  133.2309  147.2970  124.1953 C   0  0  0  0  0  0  0  0  0  0  0  0
  133.9762  147.6005  122.9116 C   0  0  0  0  0  0  0  0  0  0  0  0
  131.3046  149.0327  128.2336 C   0  0  0  0  0  0  0  0  0  0  0  0
  130.9067  150.0273  128.9131 O   0  0  0  0  0  0  0  0  0  0  0  0
  131.0476  145.5166  128.6375 C   0  0  0  0  0  0  0  0  0  0  0  0
  131.2453  144.2354  128.3181 N   0  0  0  0  0  0  0  0  0  0  0  0
  130.7731  143.2665  129.1399 C   0  0  0  0  0  0  0  0  0  0  0  0
  130.9895  141.9436  128.7924 C   0  0  0  0  0  0  0  0  0  0  0  0
  130.5218  140.9180  129.6096 C   0  0  0  0  0  0  0  0  0  0  0  0
  129.8398  141.2036  130.7709 C   0  0  0  0  0  0  0  0  0  0  0  0
  129.3924  140.1562  131.5559 O   0  0  0  0  0  0  0  0  0  0  0  0
  130.1478  139.7341  132.6403 C   0  0  0  0  0  0  0  0  0  0  0  0
  130.0627  140.4230  133.6874 O   0  0  0  0  0  0  0  0  0  0  0  0
  130.9806  138.5726  132.5685 N   0  0  0  0  0  0  0  0  0  0  0  0
  131.5877  138.0114  133.7302 C   0  0  0  0  0  0  0  0  0  0  0  0
  131.7730  136.5289  133.5367 C   0  0  0  0  0  0  0  0  0  0  0  0
  130.7204  135.8892  132.6687 C   0  0  0  0  0  0  0  0  0  0  0  0
  131.1694  134.4889  132.3278 C   0  0  0  0  0  0  0  0  0  0  0  0
  130.1317  133.7094  131.5912 C   0  0  0  0  0  0  0  0  0  0  0  0
  129.8806  132.4454  132.3067 N   0  0  0  0  0  0  0  0  0  0  0  0
  129.2534  132.3362  133.4778 C   0  0  0  0  0  0  0  0  0  0  0  0
  129.1876  131.0020  133.8049 C   0  0  0  0  0  0  0  0  0  0  0  0
  129.7903  130.2896  132.8064 C   0  0  0  0  0  0  0  0  0  0  0  0
  130.0297  128.9514  132.5820 C   0  0  0  0  0  0  0  0  0  0  0  0
  130.7025  128.5105  131.4277 C   0  0  0  0  0  0  0  0  0  0  0  0
  131.1054  129.4813  130.5396 C   0  0  0  0  0  0  0  0  0  0  0  0
  130.8882  130.8208  130.7202 C   0  0  0  0  0  0  0  0  0  0  0  0
  130.2242  131.2304  131.8638 C   0  0  0  0  0  0  0  0  0  0  0  0
  130.8599  127.1281  131.2843 N   0  0  0  0  0  0  0  0  0  0  0  0
  130.8519  126.5511  130.0434 C   0  0  0  0  0  0  0  0  0  0  0  0
  130.7666  127.1289  128.9267 O   0  0  0  0  0  0  0  0  0  0  0  0
  130.9519  125.2371  130.2102 N   0  0  0  0  0  0  0  0  0  0  0  0
  131.0216  124.9816  131.4880 N   0  0  0  0  0  0  0  0  0  0  0  0
  130.9659  126.1821  132.1902 C   0  0  0  0  0  0  0  0  0  0  0  0
  130.9609  126.2124  133.6483 C   0  0  0  0  0  0  0  0  0  0  0  0
  131.6432  127.2622  134.2948 C   0  0  0  0  0  0  0  0  0  0  0  0
  131.6683  127.4101  135.6578 C   0  0  0  0  0  0  0  0  0  0  0  0
  132.4084  128.5190  136.2948 C   0  0  0  0  0  0  0  0  0  0  0  0
  132.2824  128.3903  137.8082 C   0  0  0  0  0  0  0  0  0  0  0  0
  131.9258  129.8864  135.9011 C   0  0  0  0  0  0  0  0  0  0  0  0
  131.0049  126.5065  136.4448 C   0  0  0  0  0  0  0  0  0  0  0  0
  130.9930  126.6018  137.8381 O   0  0  0  0  0  0  0  0  0  0  0  0
  130.3261  125.4704  135.8651 C   0  0  0  0  0  0  0  0  0  0  0  0
  130.3164  125.3423  134.4613 C   0  0  0  0  0  0  0  0  0  0  0  0
  129.5999  124.2700  133.9266 O   0  0  0  0  0  0  0  0  0  0  0  0
  130.5259  136.5948  131.3389 C   0  0  0  0  0  0  0  0  0  0  0  0
  131.2194  137.9402  131.2885 C   0  0  0  0  0  0  0  0  0  0  0  0
  129.6451  142.5418  131.0811 C   0  0  0  0  0  0  0  0  0  0  0  0
  130.0877  143.5903  130.3074 C   0  0  0  0  0  0  0  0  0  0  0  0
  1  2  1  0
  2  3  1  0
  3  4  2  0
  4  5  1  0
  5  6  1  0
  6  7  1  0
  7  8  2  0
  8  9  1  0
  9 10  2  0
 10 11  1  0
 11 12  1  0
 12 13  1  0
 13 14  2  0
 13 15  1  0
 15 16  1  1
 15 17  1  0
 17 18  1  0
 10 19  1  0
 19 20  2  0
  7 21  1  0
 21 22  2  0
 22 23  1  0
 23 24  2  0
 24 25  1  0
 25 26  2  0
 26 27  1  0
 27 28  1  0
 28 29  2  0
 28 30  1  0
 30 31  1  0
 31 32  1  0
 32 33  1  0
 33 34  1  0
 34 35  1  0
 35 36  1  0
 36 37  1  0
 37 38  2  0
 38 39  1  0
 39 40  2  0
 40 41  1  0
 41 42  2  0
 42 43  1  0
 43 44  2  0
 41 45  1  0
 45 46  1  0
 46 47  2  0
 46 48  1  0
 48 49  1  0
 49 50  2  0
 50 51  1  0
 51 52  2  0
 52 53  1  0
 53 54  1  0
 54 55  1  0
 54 56  1  0
 53 57  2  0
 57 58  1  0
 57 59  1  0
 59 60  2  0
 60 61  1  0
 33 62  1  0
 62 63  1  0
 26 64  1  0
 64 65  2  0
 65  3  1  0
 21  4  1  0
 65 23  1  0
 19  6  1  0
 63 30  1  0
 15  9  1  0
 44 36  1  0
 50 45  1  0
 60 51  1  0
 44 39  1  0
M  END
$$$$
