
     RDKit          3D

 65 74  0  0  0  0  0  0  0  0999 V2000
  146.0224  176.0434  150.0574 C   0  0  0  0  0  0  0  0  0  0  0  0
  146.8348  177.1263  149.4133 C   0  0  0  0  0  0  0  0  0  0  0  0
  146.8232  177.0822  147.9476 C   0  0  0  0  0  0  0  0  0  0  0  0
  145.6862  177.4203  147.2106 C   0  0  0  0  0  0  0  0  0  0  0  0
  144.3505  177.8631  147.6594 C   0  0  0  0  0  0  0  0  0  0  0  0
  143.6129  178.0788  146.4287 N   0  0  0  0  0  0  0  0  0  0  0  0
  144.3628  177.7948  145.3583 C   0  0  0  0  0  0  0  0  0  0  0  0
  143.8303  177.9385  144.0713 C   0  0  0  0  0  0  0  0  0  0  0  0
  142.5444  178.3688  143.8884 C   0  0  0  0  0  0  0  0  0  0  0  0
  141.7843  178.6574  145.0007 C   0  0  0  0  0  0  0  0  0  0  0  0
  140.3667  179.1337  144.8379 C   0  0  0  0  0  0  0  0  0  0  0  0
  139.7960  178.4831  143.7365 O   0  0  0  0  0  0  0  0  0  0  0  0
  140.5376  178.0125  142.6654 C   0  0  0  0  0  0  0  0  0  0  0  0
  140.1244  177.1969  141.8130 O   0  0  0  0  0  0  0  0  0  0  0  0
  141.9345  178.5412  142.5515 C   0  0  1  0  0  0  0  0  0  0  0  0
  141.8109  179.9031  142.2633 O   0  0  0  0  0  0  0  0  0  0  0  0
  142.7234  177.8119  141.5094 C   0  0  0  0  0  0  0  0  0  0  0  0
  142.4227  176.3277  141.5578 C   0  0  0  0  0  0  0  0  0  0  0  0
  142.3450  178.5027  146.2433 C   0  0  0  0  0  0  0  0  0  0  0  0
  141.6258  178.7745  147.2524 O   0  0  0  0  0  0  0  0  0  0  0  0
  145.6844  177.3743  145.8349 C   0  0  0  0  0  0  0  0  0  0  0  0
  146.7709  177.0035  145.1532 N   0  0  0  0  0  0  0  0  0  0  0  0
  147.8958  176.6668  145.8303 C   0  0  0  0  0  0  0  0  0  0  0  0
  149.0128  176.2865  145.1056 C   0  0  0  0  0  0  0  0  0  0  0  0
  150.1887  175.9340  145.7624 C   0  0  0  0  0  0  0  0  0  0  0  0
  150.2574  175.9586  147.1371 C   0  0  0  0  0  0  0  0  0  0  0  0
  151.4444  175.6023  147.7517 O   0  0  0  0  0  0  0  0  0  0  0  0
  151.5573  174.3665  148.3718 C   0  0  0  0  0  0  0  0  0  0  0  0
  151.5466  173.3581  147.6227 O   0  0  0  0  0  0  0  0  0  0  0  0
  151.6804  174.2480  149.7927 N   0  0  0  0  0  0  0  0  0  0  0  0
  151.1600  175.2387  150.6763 C   0  0  0  0  0  0  0  0  0  0  0  0
  150.7810  174.5979  151.9860 C   0  0  0  0  0  0  0  0  0  0  0  0
  150.3184  173.1696  151.8568 C   0  0  0  0  0  0  0  0  0  0  0  0
  150.2420  172.5659  153.2382 C   0  0  0  0  0  0  0  0  0  0  0  0
  149.0599  173.0414  154.0152 C   0  0  0  0  0  0  0  0  0  0  0  0
  149.4631  174.1837  154.8550 N   0  0  0  0  0  0  0  0  0  0  0  0
  150.1655  175.2361  154.4359 C   0  0  0  0  0  0  0  0  0  0  0  0
  150.3166  176.0991  155.4959 C   0  0  0  0  0  0  0  0  0  0  0  0
  149.6901  175.5530  156.5808 C   0  0  0  0  0  0  0  0  0  0  0  0
  149.5111  175.9407  157.8907 C   0  0  0  0  0  0  0  0  0  0  0  0
  148.8040  175.1365  158.8033 C   0  0  0  0  0  0  0  0  0  0  0  0
  148.3029  173.9494  158.3202 C   0  0  0  0  0  0  0  0  0  0  0  0
  148.4548  173.5246  157.0277 C   0  0  0  0  0  0  0  0  0  0  0  0
  149.1545  174.3332  156.1483 C   0  0  0  0  0  0  0  0  0  0  0  0
  148.6519  175.6437  160.0979 N   0  0  0  0  0  0  0  0  0  0  0  0
  149.7108  175.6709  160.9643 C   0  0  0  0  0  0  0  0  0  0  0  0
  150.9013  175.3268  160.7354 O   0  0  0  0  0  0  0  0  0  0  0  0
  149.2670  176.1346  162.1273 N   0  0  0  0  0  0  0  0  0  0  0  0
  147.9927  176.3929  162.0161 N   0  0  0  0  0  0  0  0  0  0  0  0
  147.5831  176.0859  160.7218 C   0  0  0  0  0  0  0  0  0  0  0  0
  146.1888  176.2135  160.3134 C   0  0  0  0  0  0  0  0  0  0  0  0
  145.8801  177.1087  159.2699 C   0  0  0  0  0  0  0  0  0  0  0  0
  144.6103  177.2764  158.7798 C   0  0  0  0  0  0  0  0  0  0  0  0
  144.3289  178.2371  157.6931 C   0  0  0  0  0  0  0  0  0  0  0  0
  143.2878  179.2389  158.1783 C   0  0  0  0  0  0  0  0  0  0  0  0
  143.8147  177.6042  156.4311 C   0  0  0  0  0  0  0  0  0  0  0  0
  143.5810  176.5487  159.3155 C   0  0  0  0  0  0  0  0  0  0  0  0
  142.2664  176.6742  158.8611 O   0  0  0  0  0  0  0  0  0  0  0  0
  143.8295  175.6650  160.3293 C   0  0  0  0  0  0  0  0  0  0  0  0
  145.1444  175.5121  160.8139 C   0  0  0  0  0  0  0  0  0  0  0  0
  145.3382  174.5894  161.8435 O   0  0  0  0  0  0  0  0  0  0  0  0
  151.2811  172.2929  151.0767 C   0  0  0  0  0  0  0  0  0  0  0  0
  152.3472  173.0954  150.3604 C   0  0  0  0  0  0  0  0  0  0  0  0
  149.1156  176.3455  147.8238 C   0  0  0  0  0  0  0  0  0  0  0  0
  147.9312  176.7031  147.2213 C   0  0  0  0  0  0  0  0  0  0  0  0
  1  2  1  0
  2  3  1  0
  3  4  2  0
  4  5  1  0
  5  6  1  0
  6  7  1  0
  7  8  2  0
  8  9  1  0
  9 10  2  0
 10 11  1  0
 11 12  1  0
 12 13  1  0
 13 14  2  0
 13 15  1  0
 15 16  1  6
 15 17  1  0
 17 18  1  0
 10 19  1  0
 19 20  2  0
  7 21  1  0
 21 22  2  0
 22 23  1  0
 23 24  2  0
 24 25  1  0
 25 26  2  0
 26 27  1  0
 27 28  1  0
 28 29  2  0
 28 30  1  0
 30 31  1  0
 31 32  1  0
 32 33  1  0
 33 34  1  0
 34 35  1  0
 35 36  1  0
 36 37  1  0
 37 38  2  0
 38 39  1  0
 39 40  2  0
 40 41  1  0
 41 42  2  0
 42 43  1  0
 43 44  2  0
 41 45  1  0
 45 46  1  0
 46 47  2  0
 46 48  1  0
 48 49  1  0
 49 50  2  0
 50 51  1  0
 51 52  2  0
 52 53  1  0
 53 54  1  0
 54 55  1  0
 54 56  1  0
 53 57  2  0
 57 58  1  0
 57 59  1  0
 59 60  2  0
 60 61  1  0
 33 62  1  0
 62 63  1  0
 26 64  1  0
 64 65  2  0
 65  3  1  0
 21  4  1  0
 65 23  1  0
 19  6  1  0
 63 30  1  0
 15  9  1  0
 44 36  1  0
 50 45  1  0
 60 51  1  0
 44 39  1  0
M  END
$$$$
