
     RDKit          3D

 65 74  0  0  0  0  0  0  0  0999 V2000
  131.6499  146.0462  123.3452 C   0  0  0  0  0  0  0  0  0  0  0  0
  132.5437  145.3022  124.2912 C   0  0  0  0  0  0  0  0  0  0  0  0
  132.9888  144.0002  123.7843 C   0  0  0  0  0  0  0  0  0  0  0  0
  133.8633  143.8925  122.7008 C   0  0  0  0  0  0  0  0  0  0  0  0
  134.4998  144.9395  121.8761 C   0  0  0  0  0  0  0  0  0  0  0  0
  135.3111  144.2023  120.9255 N   0  0  0  0  0  0  0  0  0  0  0  0
  135.1906  142.8827  121.1068 C   0  0  0  0  0  0  0  0  0  0  0  0
  135.8963  141.9950  120.2855 C   0  0  0  0  0  0  0  0  0  0  0  0
  136.7147  142.4588  119.2918 C   0  0  0  0  0  0  0  0  0  0  0  0
  136.8285  143.8207  119.1174 C   0  0  0  0  0  0  0  0  0  0  0  0
  137.7197  144.3669  118.0355 C   0  0  0  0  0  0  0  0  0  0  0  0
  137.6611  143.5111  116.9281 O   0  0  0  0  0  0  0  0  0  0  0  0
  137.3754  142.1593  117.0283 C   0  0  0  0  0  0  0  0  0  0  0  0
  137.0413  141.4264  116.0725 O   0  0  0  0  0  0  0  0  0  0  0  0
  137.4850  141.5652  118.3990 C   0  0  1  0  0  0  0  0  0  0  0  0
  138.8400  141.6175  118.7369 O   0  0  0  0  0  0  0  0  0  0  0  0
  136.9435  140.1707  118.4470 C   0  0  0  0  0  0  0  0  0  0  0  0
  136.2171  139.8384  117.1596 C   0  0  0  0  0  0  0  0  0  0  0  0
  136.1192  144.6551  119.9440 C   0  0  0  0  0  0  0  0  0  0  0  0
  136.2400  145.9051  119.7642 O   0  0  0  0  0  0  0  0  0  0  0  0
  134.2742  142.6659  122.2310 C   0  0  0  0  0  0  0  0  0  0  0  0
  133.8508  141.5316  122.7941 N   0  0  0  0  0  0  0  0  0  0  0  0
  133.0009  141.5915  123.8481 C   0  0  0  0  0  0  0  0  0  0  0  0
  132.5742  140.4044  124.4196 C   0  0  0  0  0  0  0  0  0  0  0  0
  131.7019  140.4218  125.5045 C   0  0  0  0  0  0  0  0  0  0  0  0
  131.2527  141.6153  126.0230 C   0  0  0  0  0  0  0  0  0  0  0  0
  130.3877  141.5898  127.1021 O   0  0  0  0  0  0  0  0  0  0  0  0
  130.4155  140.5196  127.9845 C   0  0  0  0  0  0  0  0  0  0  0  0
  130.7453  139.4053  127.5071 O   0  0  0  0  0  0  0  0  0  0  0  0
  130.0856  140.6785  129.3679 N   0  0  0  0  0  0  0  0  0  0  0  0
  130.0150  139.5647  130.2553 C   0  0  0  0  0  0  0  0  0  0  0  0
  130.3595  140.0100  131.6526 C   0  0  0  0  0  0  0  0  0  0  0  0
  131.3473  141.1467  131.7061 C   0  0  0  0  0  0  0  0  0  0  0  0
  131.3904  141.6753  133.1194 C   0  0  0  0  0  0  0  0  0  0  0  0
  130.0771  141.5675  133.8200 C   0  0  0  0  0  0  0  0  0  0  0  0
  129.8792  140.1751  134.2612 N   0  0  0  0  0  0  0  0  0  0  0  0
  130.6996  139.1595  133.9927 C   0  0  0  0  0  0  0  0  0  0  0  0
  130.1955  138.0313  134.5964 C   0  0  0  0  0  0  0  0  0  0  0  0
  129.0424  138.3756  135.2445 C   0  0  0  0  0  0  0  0  0  0  0  0
  128.1165  137.6904  136.0004 C   0  0  0  0  0  0  0  0  0  0  0  0
  126.9923  138.3371  136.5457 C   0  0  0  0  0  0  0  0  0  0  0  0
  126.8682  139.6828  136.2860 C   0  0  0  0  0  0  0  0  0  0  0  0
  127.7631  140.4040  135.5423 C   0  0  0  0  0  0  0  0  0  0  0  0
  128.8614  139.7456  135.0161 C   0  0  0  0  0  0  0  0  0  0  0  0
  126.1363  137.5533  137.3261 N   0  0  0  0  0  0  0  0  0  0  0  0
  125.5347  138.0752  138.4390 C   0  0  0  0  0  0  0  0  0  0  0  0
  125.6044  139.2580  138.8681 O   0  0  0  0  0  0  0  0  0  0  0  0
  124.8404  137.1005  139.0154 N   0  0  0  0  0  0  0  0  0  0  0  0
  124.9857  136.0107  138.3122 N   0  0  0  0  0  0  0  0  0  0  0  0
  125.8114  136.2839  137.2255 C   0  0  0  0  0  0  0  0  0  0  0  0
  126.2076  135.2392  136.2880 C   0  0  0  0  0  0  0  0  0  0  0  0
  127.5500  134.8109  136.2968 C   0  0  0  0  0  0  0  0  0  0  0  0
  128.0203  133.8085  135.4878 C   0  0  0  0  0  0  0  0  0  0  0  0
  129.4399  133.4003  135.5198 C   0  0  0  0  0  0  0  0  0  0  0  0
  129.8663  133.2134  136.9710 C   0  0  0  0  0  0  0  0  0  0  0  0
  130.3774  134.3859  134.8814 C   0  0  0  0  0  0  0  0  0  0  0  0
  127.1610  133.1816  134.6249 C   0  0  0  0  0  0  0  0  0  0  0  0
  127.5784  132.1548  133.7752 O   0  0  0  0  0  0  0  0  0  0  0  0
  125.8475  133.5599  134.5798 C   0  0  0  0  0  0  0  0  0  0  0  0
  125.3906  134.5931  135.4229 C   0  0  0  0  0  0  0  0  0  0  0  0
  124.0383  134.9299  135.3387 O   0  0  0  0  0  0  0  0  0  0  0  0
  130.9547  142.3272  130.8365 C   0  0  0  0  0  0  0  0  0  0  0  0
  129.8161  142.0002  129.8930 C   0  0  0  0  0  0  0  0  0  0  0  0
  131.7049  142.7805  125.4205 C   0  0  0  0  0  0  0  0  0  0  0  0
  132.5664  142.8158  124.3480 C   0  0  0  0  0  0  0  0  0  0  0  0
  1  2  1  0
  2  3  1  0
  3  4  2  0
  4  5  1  0
  5  6  1  0
  6  7  1  0
  7  8  2  0
  8  9  1  0
  9 10  2  0
 10 11  1  0
 11 12  1  0
 12 13  1  0
 13 14  2  0
 13 15  1  0
 15 16  1  1
 15 17  1  0
 17 18  1  0
 10 19  1  0
 19 20  2  0
  7 21  1  0
 21 22  2  0
 22 23  1  0
 23 24  2  0
 24 25  1  0
 25 26  2  0
 26 27  1  0
 27 28  1  0
 28 29  2  0
 28 30  1  0
 30 31  1  0
 31 32  1  0
 32 33  1  0
 33 34  1  0
 34 35  1  0
 35 36  1  0
 36 37  1  0
 37 38  2  0
 38 39  1  0
 39 40  2  0
 40 41  1  0
 41 42  2  0
 42 43  1  0
 43 44  2  0
 41 45  1  0
 45 46  1  0
 46 47  2  0
 46 48  1  0
 48 49  1  0
 49 50  2  0
 50 51  1  0
 51 52  2  0
 52 53  1  0
 53 54  1  0
 54 55  1  0
 54 56  1  0
 53 57  2  0
 57 58  1  0
 57 59  1  0
 59 60  2  0
 60 61  1  0
 33 62  1  0
 62 63  1  0
 26 64  1  0
 64 65  2  0
 65  3  1  0
 21  4  1  0
 65 23  1  0
 19  6  1  0
 63 30  1  0
 15  9  1  0
 44 36  1  0
 50 45  1  0
 60 51  1  0
 44 39  1  0
M  END
$$$$
