
     RDKit          3D

 42 48  0  0  0  0  0  0  0  0999 V2000
  126.3031  153.1692  135.0368 O   0  0  0  0  0  0  0  0  0  0  0  0
  125.3964  152.2628  134.5089 C   0  0  0  0  0  0  0  0  0  0  0  0
  124.2884  152.7100  134.1179 O   0  0  0  0  0  0  0  0  0  0  0  0
  125.7052  150.8497  134.4075 C   0  0  0  0  0  0  0  0  0  0  0  0
  124.8633  149.9105  133.8827 C   0  0  0  0  0  0  0  0  0  0  0  0
  125.1290  148.5837  133.7769 C   0  0  0  0  0  0  0  0  0  0  0  0
  124.1954  147.7790  133.2348 F   0  0  0  0  0  0  0  0  0  0  0  0
  126.3680  148.0797  134.2339 C   0  0  0  0  0  0  0  0  0  0  0  0
  126.7617  146.8392  134.1996 N   0  0  0  0  0  0  0  0  0  0  0  0
  127.9478  146.4950  134.6611 C   0  0  0  0  0  0  0  0  0  0  0  0
  128.5660  148.0162  135.1848 S   0  0  0  0  0  0  0  0  0  0  0  0
  127.2271  149.0044  134.7637 C   0  0  0  0  0  0  0  0  0  0  0  0
  126.9263  150.3716  134.8609 C   0  0  0  0  0  0  0  0  0  0  0  0
  128.5711  145.2333  134.7259 N   0  0  0  0  0  0  0  0  0  0  0  0
  128.1377  144.0048  134.1281 C   0  0  1  0  0  0  0  0  0  0  0  0
  129.4480  143.5540  133.4578 C   0  0  0  0  0  0  0  0  0  0  0  0
  130.5064  144.1017  134.3760 C   0  0  0  0  0  0  0  0  0  0  0  0
  129.7915  144.9258  135.4233 C   0  0  2  0  0  0  0  0  0  0  0  0
  129.3853  144.0871  136.6195 C   0  0  0  0  0  0  0  0  0  0  0  0
  128.8163  142.7457  136.2119 C   0  0  1  0  0  0  0  0  0  0  0  0
  127.7827  142.9561  135.1620 C   0  0  0  0  0  0  0  0  0  0  0  0
  129.7797  141.8170  135.9198 O   0  0  0  0  0  0  0  0  0  0  0  0
  129.3234  140.5307  136.2188 C   0  0  0  0  0  0  0  0  0  0  0  0
  130.1284  139.4909  135.5335 C   0  0  0  0  0  0  0  0  0  0  0  0
  131.4688  139.2109  135.6747 C   0  0  0  0  0  0  0  0  0  0  0  0
  131.7184  138.2135  134.8180 O   0  0  0  0  0  0  0  0  0  0  0  0
  130.6551  137.8733  134.1825 N   0  0  0  0  0  0  0  0  0  0  0  0
  129.6026  138.6234  134.5678 C   0  0  0  0  0  0  0  0  0  0  0  0
  128.2479  138.5108  134.0502 C   0  0  0  0  0  0  0  0  0  0  0  0
  128.0431  138.3240  132.6809 C   0  0  0  0  0  0  0  0  0  0  0  0
  129.1489  138.2641  131.8663 O   0  0  0  0  0  0  0  0  0  0  0  0
  129.9166  139.3776  131.4947 C   0  0  0  0  0  0  0  0  0  0  0  0
  131.2488  139.0844  131.7229 F   0  0  0  0  0  0  0  0  0  0  0  0
  129.6122  140.5164  132.1960 F   0  0  0  0  0  0  0  0  0  0  0  0
  129.7558  139.6824  130.1489 F   0  0  0  0  0  0  0  0  0  0  0  0
  126.7743  138.2020  132.1520 C   0  0  0  0  0  0  0  0  0  0  0  0
  125.6564  138.2601  132.9572 C   0  0  0  0  0  0  0  0  0  0  0  0
  125.8441  138.4438  134.3086 C   0  0  0  0  0  0  0  0  0  0  0  0
  127.1098  138.5630  134.8188 C   0  0  0  0  0  0  0  0  0  0  0  0
  132.4824  139.8288  136.5602 C   0  0  0  0  0  0  0  0  0  0  0  0
  132.0685  141.2030  137.1722 C   0  0  0  0  0  0  0  0  0  0  0  0
  133.1493  141.1357  136.1679 C   0  0  0  0  0  0  0  0  0  0  0  0
  1  2  1  0
  2  3  2  0
  2  4  1  0
  4  5  2  0
  5  6  1  0
  6  7  1  0
  6  8  2  0
  8  9  1  0
  9 10  2  0
 10 11  1  0
 11 12  1  0
 12 13  2  0
 10 14  1  0
 14 15  1  0
 15 16  1  6
 16 17  1  0
 18 17  1  6
 18 19  1  0
 19 20  1  0
 20 21  1  0
 20 22  1  6
 22 23  1  0
 23 24  1  0
 24 25  2  0
 25 26  1  0
 26 27  1  0
 27 28  2  0
 28 29  1  0
 29 30  2  0
 30 31  1  0
 31 32  1  0
 32 33  1  0
 32 34  1  0
 32 35  1  0
 30 36  1  0
 36 37  2  0
 37 38  1  0
 38 39  2  0
 25 40  1  0
 40 41  1  0
 41 42  1  0
 13  4  1  0
 18 14  1  0
 28 24  1  0
 39 29  1  0
 42 40  1  0
 12  8  1  0
 21 15  1  0
M  END
$$$$
