
     RDKit          3D

 42 48  0  0  0  0  0  0  0  0999 V2000
  144.2613  178.7524  164.4954 O   0  0  0  0  0  0  0  0  0  0  0  0
  143.6346  178.1949  163.3914 C   0  0  0  0  0  0  0  0  0  0  0  0
  142.3779  178.1580  163.3936 O   0  0  0  0  0  0  0  0  0  0  0  0
  144.3915  177.6709  162.2711 C   0  0  0  0  0  0  0  0  0  0  0  0
  145.7554  177.6126  162.2196 C   0  0  0  0  0  0  0  0  0  0  0  0
  146.4859  177.1274  161.1837 C   0  0  0  0  0  0  0  0  0  0  0  0
  147.8289  177.1364  161.2801 F   0  0  0  0  0  0  0  0  0  0  0  0
  145.8277  176.6280  160.0368 C   0  0  0  0  0  0  0  0  0  0  0  0
  146.3908  176.1350  158.9716 N   0  0  0  0  0  0  0  0  0  0  0  0
  145.6615  175.7005  157.9628 C   0  0  0  0  0  0  0  0  0  0  0  0
  144.0655  176.0008  158.5400 S   0  0  0  0  0  0  0  0  0  0  0  0
  144.4601  176.6770  160.0676 C   0  0  0  0  0  0  0  0  0  0  0  0
  143.7295  177.1844  161.1530 C   0  0  0  0  0  0  0  0  0  0  0  0
  146.0501  175.1392  156.7306 N   0  0  0  0  0  0  0  0  0  0  0  0
  147.3465  174.6601  156.3504 C   0  0  1  0  0  0  0  0  0  0  0  0
  146.9663  173.2875  155.7668 C   0  0  0  0  0  0  0  0  0  0  0  0
  145.5926  173.5261  155.2019 C   0  0  0  0  0  0  0  0  0  0  0  0
  145.2013  174.9353  155.5869 C   0  0  2  0  0  0  0  0  0  0  0  0
  145.6507  175.9476  154.5513 C   0  0  0  0  0  0  0  0  0  0  0  0
  147.0532  175.6742  154.0540 C   0  0  1  0  0  0  0  0  0  0  0  0
  147.9514  175.4713  155.2232 C   0  0  0  0  0  0  0  0  0  0  0  0
  147.1043  174.7029  153.0897 O   0  0  0  0  0  0  0  0  0  0  0  0
  148.2199  174.8885  152.2693 C   0  0  0  0  0  0  0  0  0  0  0  0
  147.9427  175.8538  151.1782 C   0  0  0  0  0  0  0  0  0  0  0  0
  148.6340  176.9973  150.8472 C   0  0  0  0  0  0  0  0  0  0  0  0
  147.9687  177.5322  149.8166 O   0  0  0  0  0  0  0  0  0  0  0  0
  146.9495  176.8159  149.5028 N   0  0  0  0  0  0  0  0  0  0  0  0
  146.8530  175.7370  150.3063 C   0  0  0  0  0  0  0  0  0  0  0  0
  145.8171  174.7184  150.2353 C   0  0  0  0  0  0  0  0  0  0  0  0
  145.5567  174.0790  149.0206 C   0  0  0  0  0  0  0  0  0  0  0  0
  146.2959  174.4539  147.9238 O   0  0  0  0  0  0  0  0  0  0  0  0
  147.5240  173.8786  147.5659 C   0  0  0  0  0  0  0  0  0  0  0  0
  147.4006  172.5033  147.6447 F   0  0  0  0  0  0  0  0  0  0  0  0
  148.5656  174.2529  148.3762 F   0  0  0  0  0  0  0  0  0  0  0  0
  147.8867  174.2157  146.2679 F   0  0  0  0  0  0  0  0  0  0  0  0
  144.5898  173.1001  148.9142 C   0  0  0  0  0  0  0  0  0  0  0  0
  143.8412  172.7142  150.0060 C   0  0  0  0  0  0  0  0  0  0  0  0
  144.0877  173.3362  151.2091 C   0  0  0  0  0  0  0  0  0  0  0  0
  145.0509  174.3060  151.2991 C   0  0  0  0  0  0  0  0  0  0  0  0
  149.8572  177.5778  151.4474 C   0  0  0  0  0  0  0  0  0  0  0  0
  149.8566  179.1338  151.5621 C   0  0  0  0  0  0  0  0  0  0  0  0
  150.7730  178.4617  150.6188 C   0  0  0  0  0  0  0  0  0  0  0  0
  1  2  1  0
  2  3  2  0
  2  4  1  0
  4  5  2  0
  5  6  1  0
  6  7  1  0
  6  8  2  0
  8  9  1  0
  9 10  2  0
 10 11  1  0
 11 12  1  0
 12 13  2  0
 10 14  1  0
 14 15  1  0
 15 16  1  6
 16 17  1  0
 18 17  1  6
 18 19  1  0
 19 20  1  0
 20 21  1  0
 20 22  1  6
 22 23  1  0
 23 24  1  0
 24 25  2  0
 25 26  1  0
 26 27  1  0
 27 28  2  0
 28 29  1  0
 29 30  2  0
 30 31  1  0
 31 32  1  0
 32 33  1  0
 32 34  1  0
 32 35  1  0
 30 36  1  0
 36 37  2  0
 37 38  1  0
 38 39  2  0
 25 40  1  0
 40 41  1  0
 41 42  1  0
 13  4  1  0
 18 14  1  0
 28 24  1  0
 39 29  1  0
 42 40  1  0
 12  8  1  0
 21 15  1  0
M  END
$$$$
