
     RDKit          3D

 42 48  0  0  0  0  0  0  0  0999 V2000
  177.8979  187.3318  141.0525 O   0  0  0  0  0  0  0  0  0  0  0  0
  179.1614  186.8424  140.7584 C   0  0  0  0  0  0  0  0  0  0  0  0
  180.0233  187.6638  140.3546 O   0  0  0  0  0  0  0  0  0  0  0  0
  179.4864  185.4372  140.9076 C   0  0  0  0  0  0  0  0  0  0  0  0
  178.6762  184.5162  141.5088 C   0  0  0  0  0  0  0  0  0  0  0  0
  178.9578  183.1971  141.6605 C   0  0  0  0  0  0  0  0  0  0  0  0
  178.0557  182.4107  142.2776 F   0  0  0  0  0  0  0  0  0  0  0  0
  180.1802  182.6820  141.1724 C   0  0  0  0  0  0  0  0  0  0  0  0
  180.5867  181.4474  141.2451 N   0  0  0  0  0  0  0  0  0  0  0  0
  181.7555  181.0917  140.7493 C   0  0  0  0  0  0  0  0  0  0  0  0
  182.3366  182.5925  140.1324 S   0  0  0  0  0  0  0  0  0  0  0  0
  181.0075  183.5885  140.5658 C   0  0  0  0  0  0  0  0  0  0  0  0
  180.6908  184.9480  140.4225 C   0  0  0  0  0  0  0  0  0  0  0  0
  182.3891  179.8339  140.7178 N   0  0  0  0  0  0  0  0  0  0  0  0
  183.6173  179.4821  140.0680 C   0  0  1  0  0  0  0  0  0  0  0  0
  184.3287  178.7449  141.2168 C   0  0  0  0  0  0  0  0  0  0  0  0
  183.1901  178.1297  141.9837 C   0  0  0  0  0  0  0  0  0  0  0  0
  181.9136  178.6295  141.3451 C   0  0  2  0  0  0  0  0  0  0  0  0
  181.4574  177.7262  140.2159 C   0  0  0  0  0  0  0  0  0  0  0  0
  182.6062  177.2844  139.3361 C   0  0  1  0  0  0  0  0  0  0  0  0
  183.4108  178.4767  138.9539 C   0  0  0  0  0  0  0  0  0  0  0  0
  183.3123  176.2332  139.8578 O   0  0  0  0  0  0  0  0  0  0  0  0
  182.8865  175.0299  139.2894 C   0  0  0  0  0  0  0  0  0  0  0  0
  183.7321  173.8908  139.7211 C   0  0  0  0  0  0  0  0  0  0  0  0
  183.7611  173.2574  140.9429 C   0  0  0  0  0  0  0  0  0  0  0  0
  184.7120  172.3215  140.8387 O   0  0  0  0  0  0  0  0  0  0  0  0
  185.2497  172.3373  139.6721 N   0  0  0  0  0  0  0  0  0  0  0  0
  184.6958  173.2933  138.8989 C   0  0  0  0  0  0  0  0  0  0  0  0
  185.0676  173.5918  137.5247 C   0  0  0  0  0  0  0  0  0  0  0  0
  186.4177  173.6594  137.1717 C   0  0  0  0  0  0  0  0  0  0  0  0
  187.3526  173.4477  138.1571 O   0  0  0  0  0  0  0  0  0  0  0  0
  188.0965  174.4661  138.7711 C   0  0  0  0  0  0  0  0  0  0  0  0
  188.2871  175.4815  137.8517 F   0  0  0  0  0  0  0  0  0  0  0  0
  189.3313  174.0600  139.2089 F   0  0  0  0  0  0  0  0  0  0  0  0
  187.4334  174.9883  139.8745 F   0  0  0  0  0  0  0  0  0  0  0  0
  186.8114  173.9294  135.8769 C   0  0  0  0  0  0  0  0  0  0  0  0
  185.8846  174.1436  134.8787 C   0  0  0  0  0  0  0  0  0  0  0  0
  184.5507  174.0798  135.2130 C   0  0  0  0  0  0  0  0  0  0  0  0
  184.1753  173.8106  136.5026 C   0  0  0  0  0  0  0  0  0  0  0  0
  182.9492  173.4958  142.1584 C   0  0  0  0  0  0  0  0  0  0  0  0
  182.4785  172.2043  142.8966 C   0  0  0  0  0  0  0  0  0  0  0  0
  181.4944  173.0625  142.2063 C   0  0  0  0  0  0  0  0  0  0  0  0
  1  2  1  0
  2  3  2  0
  2  4  1  0
  4  5  2  0
  5  6  1  0
  6  7  1  0
  6  8  2  0
  8  9  1  0
  9 10  2  0
 10 11  1  0
 11 12  1  0
 12 13  2  0
 10 14  1  0
 14 15  1  0
 15 16  1  1
 16 17  1  0
 18 17  1  6
 18 19  1  0
 19 20  1  0
 20 21  1  0
 20 22  1  1
 22 23  1  0
 23 24  1  0
 24 25  2  0
 25 26  1  0
 26 27  1  0
 27 28  2  0
 28 29  1  0
 29 30  2  0
 30 31  1  0
 31 32  1  0
 32 33  1  0
 32 34  1  0
 32 35  1  0
 30 36  1  0
 36 37  2  0
 37 38  1  0
 38 39  2  0
 25 40  1  0
 40 41  1  0
 41 42  1  0
 13  4  1  0
 18 14  1  0
 28 24  1  0
 39 29  1  0
 42 40  1  0
 12  8  1  0
 21 15  1  0
M  END
$$$$
