
     RDKit          3D

 42 48  0  0  0  0  0  0  0  0999 V2000
  127.5300  156.4045  155.7079 O   0  0  0  0  0  0  0  0  0  0  0  0
  127.3449  157.6691  156.2455 C   0  0  0  0  0  0  0  0  0  0  0  0
  126.4513  157.8039  157.1194 O   0  0  0  0  0  0  0  0  0  0  0  0
  128.1470  158.8004  155.8220 C   0  0  0  0  0  0  0  0  0  0  0  0
  128.0156  160.0682  156.3137 C   0  0  0  0  0  0  0  0  0  0  0  0
  128.7533  161.1422  155.9338 C   0  0  0  0  0  0  0  0  0  0  0  0
  128.5058  162.3330  156.5117 F   0  0  0  0  0  0  0  0  0  0  0  0
  129.7557  160.9896  154.9491 C   0  0  0  0  0  0  0  0  0  0  0  0
  130.5372  161.9220  154.4857 N   0  0  0  0  0  0  0  0  0  0  0  0
  131.4372  161.6502  153.5613 C   0  0  0  0  0  0  0  0  0  0  0  0
  131.1773  159.9641  153.3160 S   0  0  0  0  0  0  0  0  0  0  0  0
  129.9043  159.7265  154.4427 C   0  0  0  0  0  0  0  0  0  0  0  0
  129.1270  158.6330  154.8542 C   0  0  0  0  0  0  0  0  0  0  0  0
  132.3723  162.4885  152.9232 N   0  0  0  0  0  0  0  0  0  0  0  0
  133.3813  162.1209  151.9738 C   0  0  1  0  0  0  0  0  0  0  0  0
  133.1253  163.1786  150.8851 C   0  0  0  0  0  0  0  0  0  0  0  0
  132.6297  164.3624  151.6700 C   0  0  0  0  0  0  0  0  0  0  0  0
  132.5003  163.9097  153.1072 C   0  0  2  0  0  0  0  0  0  0  0  0
  133.7889  164.1133  153.8801 C   0  0  0  0  0  0  0  0  0  0  0  0
  135.0072  163.7090  153.0792 C   0  0  1  0  0  0  0  0  0  0  0  0
  134.7812  162.3558  152.5024 C   0  0  0  0  0  0  0  0  0  0  0  0
  135.4155  164.6716  152.1945 O   0  0  0  0  0  0  0  0  0  0  0  0
  136.8093  164.6859  152.0986 C   0  0  0  0  0  0  0  0  0  0  0  0
  137.4084  165.7168  152.9803 C   0  0  0  0  0  0  0  0  0  0  0  0
  137.4670  167.0791  152.7919 C   0  0  0  0  0  0  0  0  0  0  0  0
  138.1354  167.5582  153.8477 O   0  0  0  0  0  0  0  0  0  0  0  0
  138.4783  166.6116  154.6457 N   0  0  0  0  0  0  0  0  0  0  0  0
  138.0627  165.4156  154.1815 C   0  0  0  0  0  0  0  0  0  0  0  0
  138.2839  164.1324  154.8297 C   0  0  0  0  0  0  0  0  0  0  0  0
  138.2134  164.0384  156.2218 C   0  0  0  0  0  0  0  0  0  0  0  0
  137.9439  165.1843  156.9320 O   0  0  0  0  0  0  0  0  0  0  0  0
  136.7177  165.4555  157.5566 C   0  0  0  0  0  0  0  0  0  0  0  0
  136.9175  166.4512  158.4955 F   0  0  0  0  0  0  0  0  0  0  0  0
  136.1762  164.3733  158.2024 F   0  0  0  0  0  0  0  0  0  0  0  0
  135.7659  165.8935  156.6443 F   0  0  0  0  0  0  0  0  0  0  0  0
  138.4065  162.8376  156.8739 C   0  0  0  0  0  0  0  0  0  0  0  0
  138.6773  161.6807  156.1742 C   0  0  0  0  0  0  0  0  0  0  0  0
  138.7495  161.7592  154.8017 C   0  0  0  0  0  0  0  0  0  0  0  0
  138.5552  162.9583  154.1687 C   0  0  0  0  0  0  0  0  0  0  0  0
  136.9305  167.9120  151.6910 C   0  0  0  0  0  0  0  0  0  0  0  0
  137.9269  168.9702  151.1237 C   0  0  0  0  0  0  0  0  0  0  0  0
  136.7378  169.4061  151.8835 C   0  0  0  0  0  0  0  0  0  0  0  0
  1  2  1  0
  2  3  2  0
  2  4  1  0
  4  5  2  0
  5  6  1  0
  6  7  1  0
  6  8  2  0
  8  9  1  0
  9 10  2  0
 10 11  1  0
 11 12  1  0
 12 13  2  0
 10 14  1  0
 14 15  1  0
 15 16  1  6
 16 17  1  0
 18 17  1  6
 18 19  1  0
 19 20  1  0
 20 21  1  0
 20 22  1  6
 22 23  1  0
 23 24  1  0
 24 25  2  0
 25 26  1  0
 26 27  1  0
 27 28  2  0
 28 29  1  0
 29 30  2  0
 30 31  1  0
 31 32  1  0
 32 33  1  0
 32 34  1  0
 32 35  1  0
 30 36  1  0
 36 37  2  0
 37 38  1  0
 38 39  2  0
 25 40  1  0
 40 41  1  0
 41 42  1  0
 13  4  1  0
 18 14  1  0
 28 24  1  0
 39 29  1  0
 42 40  1  0
 12  8  1  0
 21 15  1  0
M  END
$$$$
