
     RDKit          3D

 42 48  0  0  0  0  0  0  0  0999 V2000
  199.9460  141.7246  128.1278 O   0  0  0  0  0  0  0  0  0  0  0  0
  201.2771  141.3380  128.1585 C   0  0  0  0  0  0  0  0  0  0  0  0
  202.0863  141.9836  127.4452 O   0  0  0  0  0  0  0  0  0  0  0  0
  201.7290  140.2313  128.9792 C   0  0  0  0  0  0  0  0  0  0  0  0
  202.9978  139.7254  128.9638 C   0  0  0  0  0  0  0  0  0  0  0  0
  203.4444  138.6916  129.7215 C   0  0  0  0  0  0  0  0  0  0  0  0
  204.7278  138.3046  129.5944 F   0  0  0  0  0  0  0  0  0  0  0  0
  202.5613  138.0493  130.6189 C   0  0  0  0  0  0  0  0  0  0  0  0
  202.8437  137.0504  131.4045 N   0  0  0  0  0  0  0  0  0  0  0  0
  201.9255  136.5366  132.1991 C   0  0  0  0  0  0  0  0  0  0  0  0
  200.5602  137.5199  131.8252 S   0  0  0  0  0  0  0  0  0  0  0  0
  201.2841  138.5408  130.6503 C   0  0  0  0  0  0  0  0  0  0  0  0
  200.8489  139.6121  129.8551 C   0  0  0  0  0  0  0  0  0  0  0  0
  202.0050  135.4703  133.1163 N   0  0  0  0  0  0  0  0  0  0  0  0
  201.0715  135.1235  134.1472 C   0  0  1  0  0  0  0  0  0  0  0  0
  200.9139  133.6171  133.8727 C   0  0  0  0  0  0  0  0  0  0  0  0
  202.2624  133.2264  133.3323 C   0  0  0  0  0  0  0  0  0  0  0  0
  203.0651  134.5011  133.1992 C   0  0  2  0  0  0  0  0  0  0  0  0
  203.8238  134.8245  134.4717 C   0  0  0  0  0  0  0  0  0  0  0  0
  202.9862  134.5984  135.7112 C   0  0  1  0  0  0  0  0  0  0  0  0
  201.6669  135.2637  135.5330 C   0  0  0  0  0  0  0  0  0  0  0  0
  202.9422  133.2861  136.1009 O   0  0  0  0  0  0  0  0  0  0  0  0
  204.1894  132.6823  135.9219 C   0  0  0  0  0  0  0  0  0  0  0  0
  205.1319  133.0391  137.0098 C   0  0  0  0  0  0  0  0  0  0  0  0
  204.8922  133.1148  138.3631 C   0  0  0  0  0  0  0  0  0  0  0  0
  206.0484  133.5084  138.9101 O   0  0  0  0  0  0  0  0  0  0  0  0
  206.9521  133.6724  138.0121 N   0  0  0  0  0  0  0  0  0  0  0  0
  206.4664  133.3994  136.7840 C   0  0  0  0  0  0  0  0  0  0  0  0
  207.2138  133.4864  135.5391 C   0  0  0  0  0  0  0  0  0  0  0  0
  207.8374  134.6863  135.1882 C   0  0  0  0  0  0  0  0  0  0  0  0
  207.7069  135.7544  136.0440 O   0  0  0  0  0  0  0  0  0  0  0  0
  208.4027  136.9646  135.9073 C   0  0  0  0  0  0  0  0  0  0  0  0
  207.9032  137.8617  136.8338 F   0  0  0  0  0  0  0  0  0  0  0  0
  208.2810  137.5337  134.6652 F   0  0  0  0  0  0  0  0  0  0  0  0
  209.7625  136.8008  136.1400 F   0  0  0  0  0  0  0  0  0  0  0  0
  208.5644  134.8064  134.0215 C   0  0  0  0  0  0  0  0  0  0  0  0
  208.7036  133.7435  133.1543 C   0  0  0  0  0  0  0  0  0  0  0  0
  208.0941  132.5551  133.4880 C   0  0  0  0  0  0  0  0  0  0  0  0
  207.3760  132.4511  134.6499 C   0  0  0  0  0  0  0  0  0  0  0  0
  203.6551  132.8357  139.1280 C   0  0  0  0  0  0  0  0  0  0  0  0
  202.9657  134.0935  139.7422 C   0  0  0  0  0  0  0  0  0  0  0  0
  203.6031  133.0943  140.6237 C   0  0  0  0  0  0  0  0  0  0  0  0
  1  2  1  0
  2  3  2  0
  2  4  1  0
  4  5  2  0
  5  6  1  0
  6  7  1  0
  6  8  2  0
  8  9  1  0
  9 10  2  0
 10 11  1  0
 11 12  1  0
 12 13  2  0
 10 14  1  0
 14 15  1  0
 15 16  1  6
 16 17  1  0
 18 17  1  1
 18 19  1  0
 19 20  1  0
 20 21  1  0
 20 22  1  6
 22 23  1  0
 23 24  1  0
 24 25  2  0
 25 26  1  0
 26 27  1  0
 27 28  2  0
 28 29  1  0
 29 30  2  0
 30 31  1  0
 31 32  1  0
 32 33  1  0
 32 34  1  0
 32 35  1  0
 30 36  1  0
 36 37  2  0
 37 38  1  0
 38 39  2  0
 25 40  1  0
 40 41  1  0
 41 42  1  0
 13  4  1  0
 18 14  1  0
 28 24  1  0
 39 29  1  0
 42 40  1  0
 12  8  1  0
 21 15  1  0
M  END
$$$$
