
     RDKit          3D

 42 48  0  0  0  0  0  0  0  0999 V2000
  205.6570  125.4996  126.2479 O   0  0  0  0  0  0  0  0  0  0  0  0
  206.6747  125.5679  127.1870 C   0  0  0  0  0  0  0  0  0  0  0  0
  207.7233  124.9138  126.9562 O   0  0  0  0  0  0  0  0  0  0  0  0
  206.5442  126.3612  128.3937 C   0  0  0  0  0  0  0  0  0  0  0  0
  207.4984  126.4499  129.3672 C   0  0  0  0  0  0  0  0  0  0  0  0
  207.3999  127.1847  130.5042 C   0  0  0  0  0  0  0  0  0  0  0  0
  208.4284  127.1716  131.3731 F   0  0  0  0  0  0  0  0  0  0  0  0
  206.2309  127.9404  130.7496 C   0  0  0  0  0  0  0  0  0  0  0  0
  205.9935  128.6875  131.7890 N   0  0  0  0  0  0  0  0  0  0  0  0
  204.8564  129.3455  131.9012 C   0  0  0  0  0  0  0  0  0  0  0  0
  204.0525  128.8900  130.4463 S   0  0  0  0  0  0  0  0  0  0  0  0
  205.2614  127.8658  129.7861 C   0  0  0  0  0  0  0  0  0  0  0  0
  205.3899  127.0974  128.6189 C   0  0  0  0  0  0  0  0  0  0  0  0
  204.3916  130.1972  132.9224 N   0  0  0  0  0  0  0  0  0  0  0  0
  203.1930  130.9832  132.9366 C   0  0  1  0  0  0  0  0  0  0  0  0
  202.6338  130.5974  134.3178 C   0  0  0  0  0  0  0  0  0  0  0  0
  203.8748  130.3372  135.1273 C   0  0  0  0  0  0  0  0  0  0  0  0
  205.0466  130.4508  134.1781 C   0  0  2  0  0  0  0  0  0  0  0  0
  205.5679  131.8723  134.0941 C   0  0  0  0  0  0  0  0  0  0  0  0
  204.4498  132.8890  134.0213 C   0  0  1  0  0  0  0  0  0  0  0  0
  203.4809  132.4700  132.9722 C   0  0  0  0  0  0  0  0  0  0  0  0
  203.9100  133.1861  135.2444 O   0  0  0  0  0  0  0  0  0  0  0  0
  204.8105  132.8697  136.2647 C   0  0  0  0  0  0  0  0  0  0  0  0
  205.0718  134.0340  137.1452 C   0  0  0  0  0  0  0  0  0  0  0  0
  204.3009  134.5207  138.1765 C   0  0  0  0  0  0  0  0  0  0  0  0
  204.9501  135.5992  138.6308 O   0  0  0  0  0  0  0  0  0  0  0  0
  206.0332  135.7990  137.9694 N   0  0  0  0  0  0  0  0  0  0  0  0
  206.1937  134.8619  137.0130 C   0  0  0  0  0  0  0  0  0  0  0  0
  207.3055  134.7880  136.0780 C   0  0  0  0  0  0  0  0  0  0  0  0
  207.6003  135.8849  135.2646 C   0  0  0  0  0  0  0  0  0  0  0  0
  206.8071  137.0022  135.3772 O   0  0  0  0  0  0  0  0  0  0  0  0
  207.1933  138.1815  136.0310 C   0  0  0  0  0  0  0  0  0  0  0  0
  208.3887  138.6116  135.4844 F   0  0  0  0  0  0  0  0  0  0  0  0
  207.3812  138.0276  137.3810 F   0  0  0  0  0  0  0  0  0  0  0  0
  206.2478  139.1867  135.8714 F   0  0  0  0  0  0  0  0  0  0  0  0
  208.6530  135.8585  134.3725 C   0  0  0  0  0  0  0  0  0  0  0  0
  209.4566  134.7448  134.2493 C   0  0  0  0  0  0  0  0  0  0  0  0
  209.1771  133.6568  135.0451 C   0  0  0  0  0  0  0  0  0  0  0  0
  208.1289  133.6982  135.9260 C   0  0  0  0  0  0  0  0  0  0  0  0
  203.0214  134.0185  138.7279 C   0  0  0  0  0  0  0  0  0  0  0  0
  202.0029  135.1277  139.1367 C   0  0  0  0  0  0  0  0  0  0  0  0
  202.6475  134.2964  140.1735 C   0  0  0  0  0  0  0  0  0  0  0  0
  1  2  1  0
  2  3  2  0
  2  4  1  0
  4  5  2  0
  5  6  1  0
  6  7  1  0
  6  8  2  0
  8  9  1  0
  9 10  2  0
 10 11  1  0
 11 12  1  0
 12 13  2  0
 10 14  1  0
 14 15  1  0
 15 16  1  1
 16 17  1  0
 18 17  1  1
 18 19  1  0
 19 20  1  0
 20 21  1  0
 20 22  1  1
 22 23  1  0
 23 24  1  0
 24 25  2  0
 25 26  1  0
 26 27  1  0
 27 28  2  0
 28 29  1  0
 29 30  2  0
 30 31  1  0
 31 32  1  0
 32 33  1  0
 32 34  1  0
 32 35  1  0
 30 36  1  0
 36 37  2  0
 37 38  1  0
 38 39  2  0
 25 40  1  0
 40 41  1  0
 41 42  1  0
 13  4  1  0
 18 14  1  0
 28 24  1  0
 39 29  1  0
 42 40  1  0
 12  8  1  0
 21 15  1  0
M  END
$$$$
