
     RDKit          3D

 42 48  0  0  0  0  0  0  0  0999 V2000
  128.7122  149.6677  135.2818 O   0  0  0  0  0  0  0  0  0  0  0  0
  127.7236  149.0010  134.5744 C   0  0  0  0  0  0  0  0  0  0  0  0
  126.7642  149.6833  134.1332 O   0  0  0  0  0  0  0  0  0  0  0  0
  127.7847  147.5703  134.3466 C   0  0  0  0  0  0  0  0  0  0  0  0
  126.8287  146.8513  133.6867 C   0  0  0  0  0  0  0  0  0  0  0  0
  126.8631  145.5133  133.4612 C   0  0  0  0  0  0  0  0  0  0  0  0
  125.8419  144.9443  132.7930 F   0  0  0  0  0  0  0  0  0  0  0  0
  127.9593  144.7531  133.9283 C   0  0  0  0  0  0  0  0  0  0  0  0
  128.1297  143.4699  133.7891 N   0  0  0  0  0  0  0  0  0  0  0  0
  129.2019  142.8753  134.2740 C   0  0  0  0  0  0  0  0  0  0  0  0
  130.0409  144.2050  134.9801 S   0  0  0  0  0  0  0  0  0  0  0  0
  128.9293  145.4543  134.5925 C   0  0  0  0  0  0  0  0  0  0  0  0
  128.8682  146.8390  134.8118 C   0  0  0  0  0  0  0  0  0  0  0  0
  129.5871  141.5206  134.2431 N   0  0  0  0  0  0  0  0  0  0  0  0
  130.8780  140.9650  134.5251 C   0  0  1  0  0  0  0  0  0  0  0  0
  130.4807  139.8393  135.4967 C   0  0  0  0  0  0  0  0  0  0  0  0
  129.1125  139.4404  135.0148 C   0  0  0  0  0  0  0  0  0  0  0  0
  128.7397  140.4059  133.9122 C   0  0  2  0  0  0  0  0  0  0  0  0
  129.2072  139.9184  132.5546 C   0  0  0  0  0  0  0  0  0  0  0  0
  130.6075  139.3475  132.6020 C   0  0  1  0  0  0  0  0  0  0  0  0
  131.4984  140.3065  133.3102 C   0  0  0  0  0  0  0  0  0  0  0  0
  130.6484  138.0546  133.0522 O   0  0  0  0  0  0  0  0  0  0  0  0
  131.0449  137.1934  132.0259 C   0  0  0  0  0  0  0  0  0  0  0  0
  131.9958  136.1642  132.5113 C   0  0  0  0  0  0  0  0  0  0  0  0
  132.0663  134.8321  132.1719 C   0  0  0  0  0  0  0  0  0  0  0  0
  133.0676  134.3287  132.9034 O   0  0  0  0  0  0  0  0  0  0  0  0
  133.5994  135.2340  133.6436 N   0  0  0  0  0  0  0  0  0  0  0  0
  132.9897  136.4234  133.4635 C   0  0  0  0  0  0  0  0  0  0  0  0
  133.3322  137.6622  134.1444 C   0  0  0  0  0  0  0  0  0  0  0  0
  133.9088  138.7116  133.4246 C   0  0  0  0  0  0  0  0  0  0  0  0
  134.1414  138.5212  132.0831 O   0  0  0  0  0  0  0  0  0  0  0  0
  135.4123  138.5521  131.4904 C   0  0  0  0  0  0  0  0  0  0  0  0
  135.2735  138.2591  130.1459 F   0  0  0  0  0  0  0  0  0  0  0  0
  136.2935  137.6483  132.0273 F   0  0  0  0  0  0  0  0  0  0  0  0
  136.0016  139.8043  131.6109 F   0  0  0  0  0  0  0  0  0  0  0  0
  134.2384  139.9064  134.0315 C   0  0  0  0  0  0  0  0  0  0  0  0
  134.0106  140.1110  135.3759 C   0  0  0  0  0  0  0  0  0  0  0  0
  133.4427  139.0850  136.0971 C   0  0  0  0  0  0  0  0  0  0  0  0
  133.1208  137.9049  135.4806 C   0  0  0  0  0  0  0  0  0  0  0  0
  131.2521  134.0492  131.2140 C   0  0  0  0  0  0  0  0  0  0  0  0
  130.9419  132.5863  131.6591 C   0  0  0  0  0  0  0  0  0  0  0  0
  131.8435  132.8367  130.5163 C   0  0  0  0  0  0  0  0  0  0  0  0
  1  2  1  0
  2  3  2  0
  2  4  1  0
  4  5  2  0
  5  6  1  0
  6  7  1  0
  6  8  2  0
  8  9  1  0
  9 10  2  0
 10 11  1  0
 11 12  1  0
 12 13  2  0
 10 14  1  0
 14 15  1  0
 15 16  1  1
 16 17  1  0
 18 17  1  1
 18 19  1  0
 19 20  1  0
 20 21  1  0
 20 22  1  1
 22 23  1  0
 23 24  1  0
 24 25  2  0
 25 26  1  0
 26 27  1  0
 27 28  2  0
 28 29  1  0
 29 30  2  0
 30 31  1  0
 31 32  1  0
 32 33  1  0
 32 34  1  0
 32 35  1  0
 30 36  1  0
 36 37  2  0
 37 38  1  0
 38 39  2  0
 25 40  1  0
 40 41  1  0
 41 42  1  0
 13  4  1  0
 18 14  1  0
 28 24  1  0
 39 29  1  0
 42 40  1  0
 12  8  1  0
 21 15  1  0
M  END
$$$$
