
     RDKit          3D

 42 48  0  0  0  0  0  0  0  0999 V2000
  201.1337  145.7867  129.4080 O   0  0  0  0  0  0  0  0  0  0  0  0
  202.1500  144.9416  129.8266 C   0  0  0  0  0  0  0  0  0  0  0  0
  203.3161  145.4099  129.8656 O   0  0  0  0  0  0  0  0  0  0  0  0
  201.8880  143.5672  130.2070 C   0  0  0  0  0  0  0  0  0  0  0  0
  200.6437  143.0069  130.2717 C   0  0  0  0  0  0  0  0  0  0  0  0
  200.3730  141.7246  130.6246 C   0  0  0  0  0  0  0  0  0  0  0  0
  199.0900  141.3164  130.6421 F   0  0  0  0  0  0  0  0  0  0  0  0
  201.4334  140.8535  130.9634 C   0  0  0  0  0  0  0  0  0  0  0  0
  201.3292  139.6060  131.3204 N   0  0  0  0  0  0  0  0  0  0  0  0
  202.4012  138.8965  131.6136 C   0  0  0  0  0  0  0  0  0  0  0  0
  203.6544  140.0552  131.3743 S   0  0  0  0  0  0  0  0  0  0  0  0
  202.6893  141.3948  130.9050 C   0  0  0  0  0  0  0  0  0  0  0  0
  202.9406  142.7254  130.5365 C   0  0  0  0  0  0  0  0  0  0  0  0
  202.5239  137.5530  132.0191 N   0  0  0  0  0  0  0  0  0  0  0  0
  201.4905  136.6752  132.4841 C   0  0  1  0  0  0  0  0  0  0  0  0
  201.7739  135.4390  131.6118 C   0  0  0  0  0  0  0  0  0  0  0  0
  203.2644  135.4949  131.4156 C   0  0  0  0  0  0  0  0  0  0  0  0
  203.7396  136.7840  132.0476 C   0  0  2  0  0  0  0  0  0  0  0  0
  204.0797  136.6006  133.5139 C   0  0  0  0  0  0  0  0  0  0  0  0
  203.0589  135.7495  134.2366 C   0  0  1  0  0  0  0  0  0  0  0  0
  201.6955  136.2591  133.9261 C   0  0  0  0  0  0  0  0  0  0  0  0
  203.2477  134.4057  134.0508 O   0  0  0  0  0  0  0  0  0  0  0  0
  203.9912  133.8676  135.1043 C   0  0  0  0  0  0  0  0  0  0  0  0
  205.2156  133.1865  134.6187 C   0  0  0  0  0  0  0  0  0  0  0  0
  206.5308  133.4828  134.8969 C   0  0  0  0  0  0  0  0  0  0  0  0
  207.2527  132.6024  134.1936 O   0  0  0  0  0  0  0  0  0  0  0  0
  206.4929  131.8108  133.5256 N   0  0  0  0  0  0  0  0  0  0  0  0
  205.1926  132.1030  133.7315 C   0  0  0  0  0  0  0  0  0  0  0  0
  204.0636  131.4115  133.1290 C   0  0  0  0  0  0  0  0  0  0  0  0
  204.0927  131.0918  131.7693 C   0  0  0  0  0  0  0  0  0  0  0  0
  205.2014  131.4602  131.0446 O   0  0  0  0  0  0  0  0  0  0  0  0
  205.2694  132.6010  130.2315 C   0  0  0  0  0  0  0  0  0  0  0  0
  206.5063  132.6225  129.6130 F   0  0  0  0  0  0  0  0  0  0  0  0
  205.1248  133.7786  130.9199 F   0  0  0  0  0  0  0  0  0  0  0  0
  204.2856  132.5884  129.2508 F   0  0  0  0  0  0  0  0  0  0  0  0
  203.0466  130.4271  131.1626 C   0  0  0  0  0  0  0  0  0  0  0  0
  201.9288  130.0516  131.8773 C   0  0  0  0  0  0  0  0  0  0  0  0
  201.8872  130.3604  133.2182 C   0  0  0  0  0  0  0  0  0  0  0  0
  202.9335  131.0204  133.8064 C   0  0  0  0  0  0  0  0  0  0  0  0
  207.1063  134.5285  135.7737 C   0  0  0  0  0  0  0  0  0  0  0  0
  208.5293  135.0191  135.3627 C   0  0  0  0  0  0  0  0  0  0  0  0
  208.3453  134.2379  136.6026 C   0  0  0  0  0  0  0  0  0  0  0  0
  1  2  1  0
  2  3  2  0
  2  4  1  0
  4  5  2  0
  5  6  1  0
  6  7  1  0
  6  8  2  0
  8  9  1  0
  9 10  2  0
 10 11  1  0
 11 12  1  0
 12 13  2  0
 10 14  1  0
 14 15  1  0
 15 16  1  6
 16 17  1  0
 18 17  1  1
 18 19  1  0
 19 20  1  0
 20 21  1  0
 20 22  1  6
 22 23  1  0
 23 24  1  0
 24 25  2  0
 25 26  1  0
 26 27  1  0
 27 28  2  0
 28 29  1  0
 29 30  2  0
 30 31  1  0
 31 32  1  0
 32 33  1  0
 32 34  1  0
 32 35  1  0
 30 36  1  0
 36 37  2  0
 37 38  1  0
 38 39  2  0
 25 40  1  0
 40 41  1  0
 41 42  1  0
 13  4  1  0
 18 14  1  0
 28 24  1  0
 39 29  1  0
 42 40  1  0
 12  8  1  0
 21 15  1  0
M  END
$$$$
