
     RDKit          3D

 42 48  0  0  0  0  0  0  0  0999 V2000
  173.4358  149.7359  135.4552 O   0  0  0  0  0  0  0  0  0  0  0  0
  172.3725  150.5812  135.7332 C   0  0  0  0  0  0  0  0  0  0  0  0
  172.3866  151.1905  136.8328 O   0  0  0  0  0  0  0  0  0  0  0  0
  171.2800  150.7624  134.7972 C   0  0  0  0  0  0  0  0  0  0  0  0
  170.1531  151.4899  135.0561 C   0  0  0  0  0  0  0  0  0  0  0  0
  169.1181  151.6740  134.1976 C   0  0  0  0  0  0  0  0  0  0  0  0
  168.0712  152.4201  134.5982 F   0  0  0  0  0  0  0  0  0  0  0  0
  169.1606  151.0840  132.9138 C   0  0  0  0  0  0  0  0  0  0  0  0
  168.2484  151.1708  131.9890 N   0  0  0  0  0  0  0  0  0  0  0  0
  168.4075  150.5699  130.8262 C   0  0  0  0  0  0  0  0  0  0  0  0
  169.9475  149.8246  131.0339 S   0  0  0  0  0  0  0  0  0  0  0  0
  170.2817  150.3504  132.6334 C   0  0  0  0  0  0  0  0  0  0  0  0
  171.3379  150.1764  133.5408 C   0  0  0  0  0  0  0  0  0  0  0  0
  167.5647  150.5266  129.6982 N   0  0  0  0  0  0  0  0  0  0  0  0
  167.7154  149.7306  128.5158 C   0  0  1  0  0  0  0  0  0  0  0  0
  166.2990  149.1380  128.4073 C   0  0  0  0  0  0  0  0  0  0  0  0
  165.4312  150.2205  128.9890 C   0  0  0  0  0  0  0  0  0  0  0  0
  166.3618  151.2931  129.5092 C   0  0  2  0  0  0  0  0  0  0  0  0
  166.6884  152.3209  128.4432 C   0  0  0  0  0  0  0  0  0  0  0  0
  166.9644  151.6841  127.0989 C   0  0  1  0  0  0  0  0  0  0  0  0
  167.9408  150.5753  127.2788 C   0  0  0  0  0  0  0  0  0  0  0  0
  165.8252  151.3666  126.4079 O   0  0  0  0  0  0  0  0  0  0  0  0
  166.0813  151.3335  125.0347 C   0  0  0  0  0  0  0  0  0  0  0  0
  165.0337  150.5838  124.3002 C   0  0  0  0  0  0  0  0  0  0  0  0
  164.9556  149.2309  124.0589 C   0  0  0  0  0  0  0  0  0  0  0  0
  163.8463  149.0607  123.3298 O   0  0  0  0  0  0  0  0  0  0  0  0
  163.2574  150.1821  123.1159 N   0  0  0  0  0  0  0  0  0  0  0  0
  163.9330  151.1984  123.6900 C   0  0  0  0  0  0  0  0  0  0  0  0
  163.5528  152.6016  123.6425 C   0  0  0  0  0  0  0  0  0  0  0  0
  162.4069  153.0318  124.3159 C   0  0  0  0  0  0  0  0  0  0  0  0
  161.6695  152.0928  124.9974 O   0  0  0  0  0  0  0  0  0  0  0  0
  161.6385  151.9761  126.3949 C   0  0  0  0  0  0  0  0  0  0  0  0
  160.3169  151.9196  126.7984 F   0  0  0  0  0  0  0  0  0  0  0  0
  162.2320  153.0253  127.0494 F   0  0  0  0  0  0  0  0  0  0  0  0
  162.2812  150.8220  126.8251 F   0  0  0  0  0  0  0  0  0  0  0  0
  162.0183  154.3560  124.3041 C   0  0  0  0  0  0  0  0  0  0  0  0
  162.7485  155.3083  123.6249 C   0  0  0  0  0  0  0  0  0  0  0  0
  163.8801  154.8978  122.9570 C   0  0  0  0  0  0  0  0  0  0  0  0
  164.2531  153.5799  122.9781 C   0  0  0  0  0  0  0  0  0  0  0  0
  165.8580  148.1349  124.4805 C   0  0  0  0  0  0  0  0  0  0  0  0
  166.7631  147.5581  123.3479 C   0  0  0  0  0  0  0  0  0  0  0  0
  165.6783  146.7348  123.9200 C   0  0  0  0  0  0  0  0  0  0  0  0
  1  2  1  0
  2  3  2  0
  2  4  1  0
  4  5  2  0
  5  6  1  0
  6  7  1  0
  6  8  2  0
  8  9  1  0
  9 10  2  0
 10 11  1  0
 11 12  1  0
 12 13  2  0
 10 14  1  0
 14 15  1  0
 15 16  1  6
 16 17  1  0
 18 17  1  6
 18 19  1  0
 19 20  1  0
 20 21  1  0
 20 22  1  1
 22 23  1  0
 23 24  1  0
 24 25  2  0
 25 26  1  0
 26 27  1  0
 27 28  2  0
 28 29  1  0
 29 30  2  0
 30 31  1  0
 31 32  1  0
 32 33  1  0
 32 34  1  0
 32 35  1  0
 30 36  1  0
 36 37  2  0
 37 38  1  0
 38 39  2  0
 25 40  1  0
 40 41  1  0
 41 42  1  0
 13  4  1  0
 18 14  1  0
 28 24  1  0
 39 29  1  0
 42 40  1  0
 12  8  1  0
 21 15  1  0
M  END
$$$$
