
     RDKit          3D

 42 48  0  0  0  0  0  0  0  0999 V2000
  201.8759  144.6545  129.0885 O   0  0  0  0  0  0  0  0  0  0  0  0
  202.5896  143.4867  128.8671 C   0  0  0  0  0  0  0  0  0  0  0  0
  203.3103  143.4323  127.8384 O   0  0  0  0  0  0  0  0  0  0  0  0
  202.5142  142.3641  129.7818 C   0  0  0  0  0  0  0  0  0  0  0  0
  201.7826  142.3551  130.9355 C   0  0  0  0  0  0  0  0  0  0  0  0
  201.6961  141.3181  131.8069 C   0  0  0  0  0  0  0  0  0  0  0  0
  200.9314  141.4600  132.9061 F   0  0  0  0  0  0  0  0  0  0  0  0
  202.4040  140.1231  131.5448 C   0  0  0  0  0  0  0  0  0  0  0  0
  202.4188  139.0515  132.2840 N   0  0  0  0  0  0  0  0  0  0  0  0
  203.1244  137.9962  131.9279 C   0  0  0  0  0  0  0  0  0  0  0  0
  203.8234  138.5354  130.4477 S   0  0  0  0  0  0  0  0  0  0  0  0
  203.1438  140.1107  130.3931 C   0  0  0  0  0  0  0  0  0  0  0  0
  203.2153  141.1983  129.5092 C   0  0  0  0  0  0  0  0  0  0  0  0
  203.2867  136.7498  132.5639 N   0  0  0  0  0  0  0  0  0  0  0  0
  204.0442  135.6208  132.1097 C   0  0  1  0  0  0  0  0  0  0  0  0
  204.8417  135.2997  133.3864 C   0  0  0  0  0  0  0  0  0  0  0  0
  203.9049  135.7167  134.4872 C   0  0  0  0  0  0  0  0  0  0  0  0
  202.7081  136.3584  133.8218 C   0  0  2  0  0  0  0  0  0  0  0  0
  201.6366  135.3394  133.4860 C   0  0  0  0  0  0  0  0  0  0  0  0
  202.2169  134.0676  132.9073 C   0  0  1  0  0  0  0  0  0  0  0  0
  203.1679  134.4202  131.8181 C   0  0  0  0  0  0  0  0  0  0  0  0
  202.6973  133.2104  133.8615 O   0  0  0  0  0  0  0  0  0  0  0  0
  201.6615  132.4309  134.3826 C   0  0  0  0  0  0  0  0  0  0  0  0
  202.1690  131.4058  135.3262 C   0  0  0  0  0  0  0  0  0  0  0  0
  202.6828  130.1598  135.0457 C   0  0  0  0  0  0  0  0  0  0  0  0
  202.9647  129.6130  136.2342 O   0  0  0  0  0  0  0  0  0  0  0  0
  202.6691  130.4146  137.1934 N   0  0  0  0  0  0  0  0  0  0  0  0
  202.1617  131.5698  136.7171 C   0  0  0  0  0  0  0  0  0  0  0  0
  201.7170  132.6956  137.5237 C   0  0  0  0  0  0  0  0  0  0  0  0
  202.6330  133.6792  137.9048 C   0  0  0  0  0  0  0  0  0  0  0  0
  203.9397  133.5329  137.5031 O   0  0  0  0  0  0  0  0  0  0  0  0
  204.9698  133.0562  138.3270 C   0  0  0  0  0  0  0  0  0  0  0  0
  206.1759  133.2699  137.6849 F   0  0  0  0  0  0  0  0  0  0  0  0
  204.8764  131.7168  138.6080 F   0  0  0  0  0  0  0  0  0  0  0  0
  204.9958  133.7193  139.5475 F   0  0  0  0  0  0  0  0  0  0  0  0
  202.2487  134.7681  138.6606 C   0  0  0  0  0  0  0  0  0  0  0  0
  200.9418  134.9274  139.0701 C   0  0  0  0  0  0  0  0  0  0  0  0
  200.0287  133.9654  138.7014 C   0  0  0  0  0  0  0  0  0  0  0  0
  200.4252  132.8904  137.9507 C   0  0  0  0  0  0  0  0  0  0  0  0
  202.9101  129.4951  133.7420 C   0  0  0  0  0  0  0  0  0  0  0  0
  202.9777  127.9375  133.8027 C   0  0  0  0  0  0  0  0  0  0  0  0
  204.1911  128.7192  133.4897 C   0  0  0  0  0  0  0  0  0  0  0  0
  1  2  1  0
  2  3  2  0
  2  4  1  0
  4  5  2  0
  5  6  1  0
  6  7  1  0
  6  8  2  0
  8  9  1  0
  9 10  2  0
 10 11  1  0
 11 12  1  0
 12 13  2  0
 10 14  1  0
 14 15  1  0
 15 16  1  1
 16 17  1  0
 18 17  1  1
 18 19  1  0
 19 20  1  0
 20 21  1  0
 20 22  1  1
 22 23  1  0
 23 24  1  0
 24 25  2  0
 25 26  1  0
 26 27  1  0
 27 28  2  0
 28 29  1  0
 29 30  2  0
 30 31  1  0
 31 32  1  0
 32 33  1  0
 32 34  1  0
 32 35  1  0
 30 36  1  0
 36 37  2  0
 37 38  1  0
 38 39  2  0
 25 40  1  0
 40 41  1  0
 41 42  1  0
 13  4  1  0
 18 14  1  0
 28 24  1  0
 39 29  1  0
 42 40  1  0
 12  8  1  0
 21 15  1  0
M  END
$$$$
