
     RDKit          3D

 42 48  0  0  0  0  0  0  0  0999 V2000
  143.9548  179.5799  160.1694 O   0  0  0  0  0  0  0  0  0  0  0  0
  143.4375  178.3438  159.8135 C   0  0  0  0  0  0  0  0  0  0  0  0
  142.5733  177.8352  160.5718 O   0  0  0  0  0  0  0  0  0  0  0  0
  143.8707  177.6550  158.6133 C   0  0  0  0  0  0  0  0  0  0  0  0
  143.4088  176.4328  158.2143 C   0  0  0  0  0  0  0  0  0  0  0  0
  143.7983  175.7685  157.0966 C   0  0  0  0  0  0  0  0  0  0  0  0
  143.2507  174.5663  156.8358 F   0  0  0  0  0  0  0  0  0  0  0  0
  144.7613  176.3469  156.2388 C   0  0  0  0  0  0  0  0  0  0  0  0
  145.2305  175.8319  155.1390 N   0  0  0  0  0  0  0  0  0  0  0  0
  146.1324  176.4751  154.4240 C   0  0  0  0  0  0  0  0  0  0  0  0
  146.3461  177.9105  155.3538 S   0  0  0  0  0  0  0  0  0  0  0  0
  145.2376  177.5724  156.6200 C   0  0  0  0  0  0  0  0  0  0  0  0
  144.8168  178.2372  157.7820 C   0  0  0  0  0  0  0  0  0  0  0  0
  146.7714  176.1138  153.2217 N   0  0  0  0  0  0  0  0  0  0  0  0
  146.2440  176.1763  151.8904 C   0  0  1  0  0  0  0  0  0  0  0  0
  147.4027  176.8934  151.1746 C   0  0  0  0  0  0  0  0  0  0  0  0
  148.6139  176.4266  151.9350 C   0  0  0  0  0  0  0  0  0  0  0  0
  148.1084  175.5976  153.0944 C   0  0  2  0  0  0  0  0  0  0  0  0
  147.9546  174.1369  152.7176 C   0  0  0  0  0  0  0  0  0  0  0  0
  147.3329  173.9605  151.3496 C   0  0  1  0  0  0  0  0  0  0  0  0
  146.1111  174.8055  151.2596 C   0  0  0  0  0  0  0  0  0  0  0  0
  148.2314  174.1038  150.3258 O   0  0  0  0  0  0  0  0  0  0  0  0
  149.2164  173.1157  150.3998 C   0  0  0  0  0  0  0  0  0  0  0  0
  150.5586  173.6547  150.0728 C   0  0  0  0  0  0  0  0  0  0  0  0
  151.4174  174.3673  150.8786 C   0  0  0  0  0  0  0  0  0  0  0  0
  152.4771  174.6494  150.1115 O   0  0  0  0  0  0  0  0  0  0  0  0
  152.3308  174.1719  148.9279 N   0  0  0  0  0  0  0  0  0  0  0  0
  151.1517  173.5279  148.8103 C   0  0  0  0  0  0  0  0  0  0  0  0
  150.6605  172.8736  147.6077 C   0  0  0  0  0  0  0  0  0  0  0  0
  149.4191  173.2366  147.0797 C   0  0  0  0  0  0  0  0  0  0  0  0
  148.6981  174.2056  147.7364 O   0  0  0  0  0  0  0  0  0  0  0  0
  147.3360  174.4595  147.5182 C   0  0  0  0  0  0  0  0  0  0  0  0
  146.7883  174.9392  148.6941 F   0  0  0  0  0  0  0  0  0  0  0  0
  146.6209  173.3501  147.1449 F   0  0  0  0  0  0  0  0  0  0  0  0
  147.1469  175.4102  146.5230 F   0  0  0  0  0  0  0  0  0  0  0  0
  148.9226  172.6472  145.9348 C   0  0  0  0  0  0  0  0  0  0  0  0
  149.6350  171.6743  145.2661 C   0  0  0  0  0  0  0  0  0  0  0  0
  150.8600  171.3072  145.7757 C   0  0  0  0  0  0  0  0  0  0  0  0
  151.3396  171.9015  146.9129 C   0  0  0  0  0  0  0  0  0  0  0  0
  151.2770  174.7727  152.2961 C   0  0  0  0  0  0  0  0  0  0  0  0
  152.1325  176.0093  152.7125 C   0  0  0  0  0  0  0  0  0  0  0  0
  152.4594  174.6705  153.2439 C   0  0  0  0  0  0  0  0  0  0  0  0
  1  2  1  0
  2  3  2  0
  2  4  1  0
  4  5  2  0
  5  6  1  0
  6  7  1  0
  6  8  2  0
  8  9  1  0
  9 10  2  0
 10 11  1  0
 11 12  1  0
 12 13  2  0
 10 14  1  0
 14 15  1  0
 15 16  1  6
 16 17  1  0
 18 17  1  6
 18 19  1  0
 19 20  1  0
 20 21  1  0
 20 22  1  6
 22 23  1  0
 23 24  1  0
 24 25  2  0
 25 26  1  0
 26 27  1  0
 27 28  2  0
 28 29  1  0
 29 30  2  0
 30 31  1  0
 31 32  1  0
 32 33  1  0
 32 34  1  0
 32 35  1  0
 30 36  1  0
 36 37  2  0
 37 38  1  0
 38 39  2  0
 25 40  1  0
 40 41  1  0
 41 42  1  0
 13  4  1  0
 18 14  1  0
 28 24  1  0
 39 29  1  0
 42 40  1  0
 12  8  1  0
 21 15  1  0
M  END
$$$$
