
     RDKit          3D

 42 48  0  0  0  0  0  0  0  0999 V2000
  187.9500  176.2864  118.3315 O   0  0  0  0  0  0  0  0  0  0  0  0
  188.3284  175.2673  119.1921 C   0  0  0  0  0  0  0  0  0  0  0  0
  188.5263  174.1299  118.6945 O   0  0  0  0  0  0  0  0  0  0  0  0
  188.4923  175.4949  120.6148 C   0  0  0  0  0  0  0  0  0  0  0  0
  188.7836  174.5188  121.5251 C   0  0  0  0  0  0  0  0  0  0  0  0
  188.9416  174.7064  122.8600 C   0  0  0  0  0  0  0  0  0  0  0  0
  189.2279  173.6415  123.6327 F   0  0  0  0  0  0  0  0  0  0  0  0
  188.8034  176.0031  123.4054 C   0  0  0  0  0  0  0  0  0  0  0  0
  188.9249  176.3353  124.6583 N   0  0  0  0  0  0  0  0  0  0  0  0
  188.7705  177.5871  125.0422 C   0  0  0  0  0  0  0  0  0  0  0  0
  188.4293  178.3654  123.5428 S   0  0  0  0  0  0  0  0  0  0  0  0
  188.5116  176.9967  122.5102 C   0  0  0  0  0  0  0  0  0  0  0  0
  188.3534  176.7742  121.1337 C   0  0  0  0  0  0  0  0  0  0  0  0
  188.8529  178.1655  126.3241 N   0  0  0  0  0  0  0  0  0  0  0  0
  189.3191  179.4757  126.6712 C   0  0  1  0  0  0  0  0  0  0  0  0
  188.1687  179.9386  127.5831 C   0  0  0  0  0  0  0  0  0  0  0  0
  187.6970  178.6568  128.2138 C   0  0  0  0  0  0  0  0  0  0  0  0
  188.4780  177.5372  127.5630 C   0  0  2  0  0  0  0  0  0  0  0  0
  189.7761  177.2565  128.2948 C   0  0  0  0  0  0  0  0  0  0  0  0
  190.4922  178.5266  128.6987 C   0  0  1  0  0  0  0  0  0  0  0  0
  190.5721  179.4336  127.5214 C   0  0  0  0  0  0  0  0  0  0  0  0
  189.9954  179.0848  129.8465 O   0  0  0  0  0  0  0  0  0  0  0  0
  190.7320  178.6582  130.9545 C   0  0  0  0  0  0  0  0  0  0  0  0
  190.0052  178.9049  132.2233 C   0  0  0  0  0  0  0  0  0  0  0  0
  188.9900  178.1670  132.7888 C   0  0  0  0  0  0  0  0  0  0  0  0
  188.6527  178.8202  133.9071 O   0  0  0  0  0  0  0  0  0  0  0  0
  189.3707  179.8743  134.0609 N   0  0  0  0  0  0  0  0  0  0  0  0
  190.2514  180.0095  133.0485 C   0  0  0  0  0  0  0  0  0  0  0  0
  191.2129  181.0909  132.9014 C   0  0  0  0  0  0  0  0  0  0  0  0
  192.5430  180.8911  133.2791 C   0  0  0  0  0  0  0  0  0  0  0  0
  192.8896  179.6636  133.7921 O   0  0  0  0  0  0  0  0  0  0  0  0
  194.1256  179.0375  133.5737 C   0  0  0  0  0  0  0  0  0  0  0  0
  194.0430  177.7366  134.0357 F   0  0  0  0  0  0  0  0  0  0  0  0
  195.1733  179.6451  134.2177 F   0  0  0  0  0  0  0  0  0  0  0  0
  194.4507  179.0067  132.2233 F   0  0  0  0  0  0  0  0  0  0  0  0
  193.4878  181.8881  133.1454 C   0  0  0  0  0  0  0  0  0  0  0  0
  193.1542  183.1237  132.6323 C   0  0  0  0  0  0  0  0  0  0  0  0
  191.8468  183.3340  132.2560 C   0  0  0  0  0  0  0  0  0  0  0  0
  190.9203  182.3345  132.3946 C   0  0  0  0  0  0  0  0  0  0  0  0
  188.3541  176.9117  132.3271 C   0  0  0  0  0  0  0  0  0  0  0  0
  186.9355  176.6395  132.9169 C   0  0  0  0  0  0  0  0  0  0  0  0
  188.0760  175.7866  133.3085 C   0  0  0  0  0  0  0  0  0  0  0  0
  1  2  1  0
  2  3  2  0
  2  4  1  0
  4  5  2  0
  5  6  1  0
  6  7  1  0
  6  8  2  0
  8  9  1  0
  9 10  2  0
 10 11  1  0
 11 12  1  0
 12 13  2  0
 10 14  1  0
 14 15  1  0
 15 16  1  1
 16 17  1  0
 18 17  1  1
 18 19  1  0
 19 20  1  0
 20 21  1  0
 20 22  1  1
 22 23  1  0
 23 24  1  0
 24 25  2  0
 25 26  1  0
 26 27  1  0
 27 28  2  0
 28 29  1  0
 29 30  2  0
 30 31  1  0
 31 32  1  0
 32 33  1  0
 32 34  1  0
 32 35  1  0
 30 36  1  0
 36 37  2  0
 37 38  1  0
 38 39  2  0
 25 40  1  0
 40 41  1  0
 41 42  1  0
 13  4  1  0
 18 14  1  0
 28 24  1  0
 39 29  1  0
 42 40  1  0
 12  8  1  0
 21 15  1  0
M  END
$$$$
