
     RDKit          3D

 42 48  0  0  0  0  0  0  0  0999 V2000
  156.3226  168.0873  138.2270 O   0  0  0  0  0  0  0  0  0  0  0  0
  155.1110  168.5338  138.7321 C   0  0  0  0  0  0  0  0  0  0  0  0
  155.0801  168.8915  139.9370 O   0  0  0  0  0  0  0  0  0  0  0  0
  153.9183  168.5897  137.9095 C   0  0  0  0  0  0  0  0  0  0  0  0
  152.6659  168.8634  138.3817 C   0  0  0  0  0  0  0  0  0  0  0  0
  151.5354  168.9213  137.6327 C   0  0  0  0  0  0  0  0  0  0  0  0
  150.3693  169.2036  138.2439 F   0  0  0  0  0  0  0  0  0  0  0  0
  151.6056  168.6860  136.2408 C   0  0  0  0  0  0  0  0  0  0  0  0
  150.6126  168.7063  135.3990 N   0  0  0  0  0  0  0  0  0  0  0  0
  150.8099  168.4679  134.1173 C   0  0  0  0  0  0  0  0  0  0  0  0
  152.5110  168.1937  134.0780 S   0  0  0  0  0  0  0  0  0  0  0  0
  152.8519  168.4098  135.7464 C   0  0  0  0  0  0  0  0  0  0  0  0
  154.0049  168.3563  136.5445 C   0  0  0  0  0  0  0  0  0  0  0  0
  149.8981  168.4357  133.0440 N   0  0  0  0  0  0  0  0  0  0  0  0
  148.5389  168.8905  133.0287 C   0  0  1  0  0  0  0  0  0  0  0  0
  148.5517  169.7357  131.7422 C   0  0  0  0  0  0  0  0  0  0  0  0
  149.5610  169.0280  130.8798 C   0  0  0  0  0  0  0  0  0  0  0  0
  150.1603  167.9260  131.7243 C   0  0  2  0  0  0  0  0  0  0  0  0
  149.3688  166.6373  131.6130 C   0  0  0  0  0  0  0  0  0  0  0  0
  147.8755  166.8770  131.6526 C   0  0  1  0  0  0  0  0  0  0  0  0
  147.5564  167.7588  132.8083 C   0  0  0  0  0  0  0  0  0  0  0  0
  147.3594  167.2685  130.4459 O   0  0  0  0  0  0  0  0  0  0  0  0
  145.9677  167.3680  130.5200 C   0  0  0  0  0  0  0  0  0  0  0  0
  145.4950  168.7238  130.1497 C   0  0  0  0  0  0  0  0  0  0  0  0
  144.9058  169.6762  130.9502 C   0  0  0  0  0  0  0  0  0  0  0  0
  144.6356  170.7070  130.1406 O   0  0  0  0  0  0  0  0  0  0  0  0
  145.0088  170.4591  128.9367 N   0  0  0  0  0  0  0  0  0  0  0  0
  145.5621  169.2325  128.8465 C   0  0  0  0  0  0  0  0  0  0  0  0
  146.0868  168.6275  127.6323 C   0  0  0  0  0  0  0  0  0  0  0  0
  147.1435  169.2401  126.9541 C   0  0  0  0  0  0  0  0  0  0  0  0
  147.6434  170.4139  127.4663 O   0  0  0  0  0  0  0  0  0  0  0  0
  148.8839  170.5284  128.1110 C   0  0  0  0  0  0  0  0  0  0  0  0
  148.9481  169.5700  129.1060 F   0  0  0  0  0  0  0  0  0  0  0  0
  149.0915  171.7524  128.6943 F   0  0  0  0  0  0  0  0  0  0  0  0
  149.9380  170.3218  127.2302 F   0  0  0  0  0  0  0  0  0  0  0  0
  147.6765  168.6924  125.8050 C   0  0  0  0  0  0  0  0  0  0  0  0
  147.1849  167.5158  125.2804 C   0  0  0  0  0  0  0  0  0  0  0  0
  146.1437  166.9016  125.9389 C   0  0  0  0  0  0  0  0  0  0  0  0
  145.6254  167.4573  127.0786 C   0  0  0  0  0  0  0  0  0  0  0  0
  144.6036  169.6470  132.3997 C   0  0  0  0  0  0  0  0  0  0  0  0
  143.1498  170.0712  132.7753 C   0  0  0  0  0  0  0  0  0  0  0  0
  144.2909  170.9334  133.1441 C   0  0  0  0  0  0  0  0  0  0  0  0
  1  2  1  0
  2  3  2  0
  2  4  1  0
  4  5  2  0
  5  6  1  0
  6  7  1  0
  6  8  2  0
  8  9  1  0
  9 10  2  0
 10 11  1  0
 11 12  1  0
 12 13  2  0
 10 14  1  0
 14 15  1  0
 15 16  1  6
 16 17  1  0
 18 17  1  6
 18 19  1  0
 19 20  1  0
 20 21  1  0
 20 22  1  6
 22 23  1  0
 23 24  1  0
 24 25  2  0
 25 26  1  0
 26 27  1  0
 27 28  2  0
 28 29  1  0
 29 30  2  0
 30 31  1  0
 31 32  1  0
 32 33  1  0
 32 34  1  0
 32 35  1  0
 30 36  1  0
 36 37  2  0
 37 38  1  0
 38 39  2  0
 25 40  1  0
 40 41  1  0
 41 42  1  0
 13  4  1  0
 18 14  1  0
 28 24  1  0
 39 29  1  0
 42 40  1  0
 12  8  1  0
 21 15  1  0
M  END
$$$$
