
     RDKit          3D

 42 48  0  0  0  0  0  0  0  0999 V2000
  142.6505  160.2525  140.5868 O   0  0  0  0  0  0  0  0  0  0  0  0
  143.8049  160.9314  140.2275 C   0  0  0  0  0  0  0  0  0  0  0  0
  144.6097  161.2349  141.1443 O   0  0  0  0  0  0  0  0  0  0  0  0
  144.0824  161.2828  138.8484 C   0  0  0  0  0  0  0  0  0  0  0  0
  143.2676  160.9800  137.7946 C   0  0  0  0  0  0  0  0  0  0  0  0
  143.5052  161.2976  136.4966 C   0  0  0  0  0  0  0  0  0  0  0  0
  142.6046  160.9291  135.5659 F   0  0  0  0  0  0  0  0  0  0  0  0
  144.6818  162.0013  136.1526 C   0  0  0  0  0  0  0  0  0  0  0  0
  145.0435  162.3721  134.9582 N   0  0  0  0  0  0  0  0  0  0  0  0
  146.1723  163.0264  134.7679 C   0  0  0  0  0  0  0  0  0  0  0  0
  146.7800  163.1355  136.3770 S   0  0  0  0  0  0  0  0  0  0  0  0
  145.5129  162.3151  137.1941 C   0  0  0  0  0  0  0  0  0  0  0  0
  145.2421  161.9740  138.5281 C   0  0  0  0  0  0  0  0  0  0  0  0
  146.7547  163.5161  133.5825 N   0  0  0  0  0  0  0  0  0  0  0  0
  147.7566  164.5323  133.4476 C   0  0  1  0  0  0  0  0  0  0  0  0
  148.7403  163.8177  132.5037 C   0  0  0  0  0  0  0  0  0  0  0  0
  147.8415  162.9402  131.6758 C   0  0  0  0  0  0  0  0  0  0  0  0
  146.4478  163.0823  132.2454 C   0  0  2  0  0  0  0  0  0  0  0  0
  145.6903  164.2274  131.6017 C   0  0  0  0  0  0  0  0  0  0  0  0
  146.5523  165.4585  131.4278 C   0  0  1  0  0  0  0  0  0  0  0  0
  147.2420  165.7532  132.7132 C   0  0  0  0  0  0  0  0  0  0  0  0
  147.3569  165.4020  130.3208 O   0  0  0  0  0  0  0  0  0  0  0  0
  146.6449  164.9072  129.2253 C   0  0  0  0  0  0  0  0  0  0  0  0
  147.2235  165.3712  127.9412 C   0  0  0  0  0  0  0  0  0  0  0  0
  146.9982  164.8861  126.6727 C   0  0  0  0  0  0  0  0  0  0  0  0
  147.7780  165.6160  125.8665 O   0  0  0  0  0  0  0  0  0  0  0  0
  148.4439  166.4887  126.5338 N   0  0  0  0  0  0  0  0  0  0  0  0
  148.1590  166.4095  127.8496 C   0  0  0  0  0  0  0  0  0  0  0  0
  148.7361  167.2430  128.8926 C   0  0  0  0  0  0  0  0  0  0  0  0
  148.0062  168.3201  129.4016 C   0  0  0  0  0  0  0  0  0  0  0  0
  146.7570  168.5563  128.8784 O   0  0  0  0  0  0  0  0  0  0  0  0
  146.5087  169.3757  127.7675 C   0  0  0  0  0  0  0  0  0  0  0  0
  145.1787  169.2393  127.4136 F   0  0  0  0  0  0  0  0  0  0  0  0
  147.2687  169.0618  126.6696 F   0  0  0  0  0  0  0  0  0  0  0  0
  146.7544  170.7126  128.0542 F   0  0  0  0  0  0  0  0  0  0  0  0
  148.5139  169.1279  130.3986 C   0  0  0  0  0  0  0  0  0  0  0  0
  149.7651  168.9025  130.9324 C   0  0  0  0  0  0  0  0  0  0  0  0
  150.4950  167.8442  130.4400 C   0  0  0  0  0  0  0  0  0  0  0  0
  149.9775  167.0510  129.4503 C   0  0  0  0  0  0  0  0  0  0  0  0
  146.1026  163.7994  126.2141 C   0  0  0  0  0  0  0  0  0  0  0  0
  146.5335  163.1131  124.8807 C   0  0  0  0  0  0  0  0  0  0  0  0
  145.3154  163.9474  124.9238 C   0  0  0  0  0  0  0  0  0  0  0  0
  1  2  1  0
  2  3  2  0
  2  4  1  0
  4  5  2  0
  5  6  1  0
  6  7  1  0
  6  8  2  0
  8  9  1  0
  9 10  2  0
 10 11  1  0
 11 12  1  0
 12 13  2  0
 10 14  1  0
 14 15  1  0
 15 16  1  6
 16 17  1  0
 18 17  1  6
 18 19  1  0
 19 20  1  0
 20 21  1  0
 20 22  1  6
 22 23  1  0
 23 24  1  0
 24 25  2  0
 25 26  1  0
 26 27  1  0
 27 28  2  0
 28 29  1  0
 29 30  2  0
 30 31  1  0
 31 32  1  0
 32 33  1  0
 32 34  1  0
 32 35  1  0
 30 36  1  0
 36 37  2  0
 37 38  1  0
 38 39  2  0
 25 40  1  0
 40 41  1  0
 41 42  1  0
 13  4  1  0
 18 14  1  0
 28 24  1  0
 39 29  1  0
 42 40  1  0
 12  8  1  0
 21 15  1  0
M  END
$$$$
