
     RDKit          3D

 42 48  0  0  0  0  0  0  0  0999 V2000
  112.7284  173.9580  136.7109 O   0  0  0  0  0  0  0  0  0  0  0  0
  113.8400  173.5879  137.4523 C   0  0  0  0  0  0  0  0  0  0  0  0
  114.7808  174.4169  137.5423 O   0  0  0  0  0  0  0  0  0  0  0  0
  113.9239  172.2949  138.1033 C   0  0  0  0  0  0  0  0  0  0  0  0
  112.9022  171.3898  138.1586 C   0  0  0  0  0  0  0  0  0  0  0  0
  112.9561  170.1748  138.7612 C   0  0  0  0  0  0  0  0  0  0  0  0
  111.8622  169.3902  138.7323 F   0  0  0  0  0  0  0  0  0  0  0  0
  114.1477  169.7631  139.4003 C   0  0  0  0  0  0  0  0  0  0  0  0
  114.3478  168.6341  140.0170 N   0  0  0  0  0  0  0  0  0  0  0  0
  115.5115  168.3683  140.5767 C   0  0  0  0  0  0  0  0  0  0  0  0
  116.3993  169.8013  140.2178 S   0  0  0  0  0  0  0  0  0  0  0  0
  115.1847  170.6555  139.3566 C   0  0  0  0  0  0  0  0  0  0  0  0
  115.1014  171.9063  138.7259 C   0  0  0  0  0  0  0  0  0  0  0  0
  115.9446  167.2310  141.2863 N   0  0  0  0  0  0  0  0  0  0  0  0
  115.1614  166.3509  142.1028 C   0  0  1  0  0  0  0  0  0  0  0  0
  115.6096  164.9903  141.5396 C   0  0  0  0  0  0  0  0  0  0  0  0
  117.0319  165.2463  141.1218 C   0  0  0  0  0  0  0  0  0  0  0  0
  117.2894  166.7217  141.3317 C   0  0  2  0  0  0  0  0  0  0  0  0
  117.7955  167.0116  142.7314 C   0  0  0  0  0  0  0  0  0  0  0  0
  117.0430  166.2300  143.7859 C   0  0  1  0  0  0  0  0  0  0  0  0
  115.5812  166.3908  143.5577 C   0  0  0  0  0  0  0  0  0  0  0  0
  117.4853  164.9407  143.9204 O   0  0  0  0  0  0  0  0  0  0  0  0
  117.9956  164.7318  145.2041 C   0  0  0  0  0  0  0  0  0  0  0  0
  117.2825  163.6370  145.9055 C   0  0  0  0  0  0  0  0  0  0  0  0
  117.5511  162.2870  145.8868 C   0  0  0  0  0  0  0  0  0  0  0  0
  116.6060  161.7234  146.6484 O   0  0  0  0  0  0  0  0  0  0  0  0
  115.8027  162.6087  147.1187 N   0  0  0  0  0  0  0  0  0  0  0  0
  116.1509  163.8440  146.7044 C   0  0  0  0  0  0  0  0  0  0  0  0
  115.4578  165.0773  147.0426 C   0  0  0  0  0  0  0  0  0  0  0  0
  114.0615  165.0978  147.0844 C   0  0  0  0  0  0  0  0  0  0  0  0
  113.3909  163.9346  146.7889 O   0  0  0  0  0  0  0  0  0  0  0  0
  113.2247  162.8698  147.6866 C   0  0  0  0  0  0  0  0  0  0  0  0
  112.7205  161.7867  146.9898 F   0  0  0  0  0  0  0  0  0  0  0  0
  112.3602  163.1453  148.7153 F   0  0  0  0  0  0  0  0  0  0  0  0
  114.4309  162.4985  148.2673 F   0  0  0  0  0  0  0  0  0  0  0  0
  113.3670  166.2447  147.4112 C   0  0  0  0  0  0  0  0  0  0  0  0
  114.0266  167.4181  147.7099 C   0  0  0  0  0  0  0  0  0  0  0  0
  115.4027  167.4117  147.6725 C   0  0  0  0  0  0  0  0  0  0  0  0
  116.0781  166.2654  147.3465 C   0  0  0  0  0  0  0  0  0  0  0  0
  118.6313  161.5405  145.2018 C   0  0  0  0  0  0  0  0  0  0  0  0
  119.3189  162.3088  144.0307 C   0  0  0  0  0  0  0  0  0  0  0  0
  118.4766  161.1290  143.7480 C   0  0  0  0  0  0  0  0  0  0  0  0
  1  2  1  0
  2  3  2  0
  2  4  1  0
  4  5  2  0
  5  6  1  0
  6  7  1  0
  6  8  2  0
  8  9  1  0
  9 10  2  0
 10 11  1  0
 11 12  1  0
 12 13  2  0
 10 14  1  0
 14 15  1  0
 15 16  1  6
 16 17  1  0
 18 17  1  1
 18 19  1  0
 19 20  1  0
 20 21  1  0
 20 22  1  6
 22 23  1  0
 23 24  1  0
 24 25  2  0
 25 26  1  0
 26 27  1  0
 27 28  2  0
 28 29  1  0
 29 30  2  0
 30 31  1  0
 31 32  1  0
 32 33  1  0
 32 34  1  0
 32 35  1  0
 30 36  1  0
 36 37  2  0
 37 38  1  0
 38 39  2  0
 25 40  1  0
 40 41  1  0
 41 42  1  0
 13  4  1  0
 18 14  1  0
 28 24  1  0
 39 29  1  0
 42 40  1  0
 12  8  1  0
 21 15  1  0
M  END
$$$$
