
     RDKit          3D

 42 48  0  0  0  0  0  0  0  0999 V2000
  201.9008  144.7671  128.1852 O   0  0  0  0  0  0  0  0  0  0  0  0
  201.3453  143.4993  128.2639 C   0  0  0  0  0  0  0  0  0  0  0  0
  200.4389  143.2099  127.4422 O   0  0  0  0  0  0  0  0  0  0  0  0
  201.7862  142.5358  129.2538 C   0  0  0  0  0  0  0  0  0  0  0  0
  202.7386  142.7823  130.2016 C   0  0  0  0  0  0  0  0  0  0  0  0
  203.1679  141.8981  131.1376 C   0  0  0  0  0  0  0  0  0  0  0  0
  204.1177  142.2892  132.0082 F   0  0  0  0  0  0  0  0  0  0  0  0
  202.6142  140.5983  131.1781 C   0  0  0  0  0  0  0  0  0  0  0  0
  202.9243  139.6480  132.0121 N   0  0  0  0  0  0  0  0  0  0  0  0
  202.3324  138.4717  131.9449 C   0  0  0  0  0  0  0  0  0  0  0  0
  201.2589  138.7042  130.6168 S   0  0  0  0  0  0  0  0  0  0  0  0
  201.6574  140.3300  130.2366 C   0  0  0  0  0  0  0  0  0  0  0  0
  201.2321  141.2640  129.2796 C   0  0  0  0  0  0  0  0  0  0  0  0
  202.5084  137.3152  132.7297 N   0  0  0  0  0  0  0  0  0  0  0  0
  201.8826  136.9943  133.9787 C   0  0  1  0  0  0  0  0  0  0  0  0
  201.4078  135.5605  133.6820 C   0  0  0  0  0  0  0  0  0  0  0  0
  202.4508  135.0469  132.7272 C   0  0  0  0  0  0  0  0  0  0  0  0
  203.3728  136.2065  132.4232 C   0  0  2  0  0  0  0  0  0  0  0  0
  204.5192  136.2890  133.4123 C   0  0  0  0  0  0  0  0  0  0  0  0
  204.0655  136.0522  134.8361 C   0  0  1  0  0  0  0  0  0  0  0  0
  202.8796  136.9070  135.1157 C   0  0  0  0  0  0  0  0  0  0  0  0
  203.9277  134.7250  135.1451 O   0  0  0  0  0  0  0  0  0  0  0  0
  205.0159  134.2855  135.9033 C   0  0  0  0  0  0  0  0  0  0  0  0
  204.8261  132.8936  136.3781 C   0  0  0  0  0  0  0  0  0  0  0  0
  204.3288  132.4585  137.5857 C   0  0  0  0  0  0  0  0  0  0  0  0
  204.3924  131.1225  137.5387 O   0  0  0  0  0  0  0  0  0  0  0  0
  204.8783  130.7223  136.4189 N   0  0  0  0  0  0  0  0  0  0  0  0
  205.1805  131.7683  135.6232 C   0  0  0  0  0  0  0  0  0  0  0  0
  205.7527  131.6797  134.2889 C   0  0  0  0  0  0  0  0  0  0  0  0
  207.1160  131.9217  134.1026 C   0  0  0  0  0  0  0  0  0  0  0  0
  207.8688  132.2491  135.2054 O   0  0  0  0  0  0  0  0  0  0  0  0
  208.4253  133.5163  135.4330 C   0  0  0  0  0  0  0  0  0  0  0  0
  207.3936  134.4197  135.6128 F   0  0  0  0  0  0  0  0  0  0  0  0
  209.2044  133.9705  134.3994 F   0  0  0  0  0  0  0  0  0  0  0  0
  209.2242  133.5264  136.5695 F   0  0  0  0  0  0  0  0  0  0  0  0
  207.6991  131.8373  132.8546 C   0  0  0  0  0  0  0  0  0  0  0  0
  206.9562  131.5098  131.7401 C   0  0  0  0  0  0  0  0  0  0  0  0
  205.6115  131.2687  131.9097 C   0  0  0  0  0  0  0  0  0  0  0  0
  205.0471  131.3562  133.1548 C   0  0  0  0  0  0  0  0  0  0  0  0
  203.8127  133.2331  138.7376 C   0  0  0  0  0  0  0  0  0  0  0  0
  204.2482  132.6969  140.1367 C   0  0  0  0  0  0  0  0  0  0  0  0
  202.8366  132.5988  139.7130 C   0  0  0  0  0  0  0  0  0  0  0  0
  1  2  1  0
  2  3  2  0
  2  4  1  0
  4  5  2  0
  5  6  1  0
  6  7  1  0
  6  8  2  0
  8  9  1  0
  9 10  2  0
 10 11  1  0
 11 12  1  0
 12 13  2  0
 10 14  1  0
 14 15  1  0
 15 16  1  6
 16 17  1  0
 18 17  1  1
 18 19  1  0
 19 20  1  0
 20 21  1  0
 20 22  1  6
 22 23  1  0
 23 24  1  0
 24 25  2  0
 25 26  1  0
 26 27  1  0
 27 28  2  0
 28 29  1  0
 29 30  2  0
 30 31  1  0
 31 32  1  0
 32 33  1  0
 32 34  1  0
 32 35  1  0
 30 36  1  0
 36 37  2  0
 37 38  1  0
 38 39  2  0
 25 40  1  0
 40 41  1  0
 41 42  1  0
 13  4  1  0
 18 14  1  0
 28 24  1  0
 39 29  1  0
 42 40  1  0
 12  8  1  0
 21 15  1  0
M  END
$$$$
