
     RDKit          3D

 42 47  0  0  0  0  0  0  0  0999 V2000
  194.1899  161.0629  133.0204 C   0  0  0  0  0  0  0  0  0  0  0  0
  193.2709  161.7107  132.1000 N   0  0  0  0  0  0  0  0  0  0  0  0
  192.4698  161.0079  131.2758 C   0  0  0  0  0  0  0  0  0  0  0  0
  192.5365  159.7471  131.3213 O   0  0  0  0  0  0  0  0  0  0  0  0
  191.6036  161.5363  130.4072 N   0  0  0  0  0  0  0  0  0  0  0  0
  191.5173  162.8816  130.3435 C   0  0  0  0  0  0  0  0  0  0  0  0
  190.7089  163.4296  129.5338 O   0  0  0  0  0  0  0  0  0  0  0  0
  192.2995  163.6944  131.1503 C   0  0  0  0  0  0  0  0  0  0  0  0
  193.1749  163.0481  132.0262 C   0  0  0  0  0  0  0  0  0  0  0  0
  193.9538  163.8443  132.8297 C   0  0  0  0  0  0  0  0  0  0  0  0
  194.8196  163.2915  133.6973 F   0  0  0  0  0  0  0  0  0  0  0  0
  193.9040  165.2310  132.8037 C   0  0  0  0  0  0  0  0  0  0  0  0
  193.0214  165.8598  131.9202 C   0  0  0  0  0  0  0  0  0  0  0  0
  192.2396  165.0659  131.1138 C   0  0  0  0  0  0  0  0  0  0  0  0
  190.7728  160.7545  129.5510 C   0  0  0  0  0  0  0  0  0  0  0  0
  191.1563  160.3410  128.3060 C   0  0  0  0  0  0  0  0  0  0  0  0
  192.4986  160.7202  127.8188 C   0  0  0  0  0  0  0  0  0  0  0  0
  190.3289  159.5806  127.4927 C   0  0  0  0  0  0  0  0  0  0  0  0
  189.0856  159.2464  127.9828 C   0  0  0  0  0  0  0  0  0  0  0  0
  188.6751  159.6518  129.2369 C   0  0  0  0  0  0  0  0  0  0  0  0
  189.5238  160.4099  130.0244 C   0  0  0  0  0  0  0  0  0  0  0  0
  190.7805  159.1690  126.1846 C   0  0  0  0  0  0  0  0  0  0  0  0
  190.6705  160.0102  125.1063 C   0  0  0  0  0  0  0  0  0  0  0  0
  190.2134  161.2987  124.9141 C   0  0  0  0  0  0  0  0  0  0  0  0
  190.3406  161.6695  123.5821 C   0  0  0  0  0  0  0  0  0  0  0  0
  189.9088  163.0244  123.1401 C   0  0  0  0  0  0  0  0  0  0  0  0
  188.6470  163.4390  123.8078 C   0  0  2  0  0  0  0  0  0  0  0  0
  188.3748  162.8093  125.1355 C   0  0  0  0  0  0  0  0  0  0  0  0
  189.6467  162.3233  125.8127 C   0  0  0  0  0  0  0  0  0  0  0  0
  187.4264  163.3259  122.9221 C   0  0  0  0  0  0  0  0  0  0  0  0
  187.5543  164.0948  121.6496 C   0  0  0  0  0  0  0  0  0  0  0  0
  186.1434  163.7217  123.6109 C   0  0  0  0  0  0  0  0  0  0  0  0
  187.2860  161.9521  122.5829 O   0  0  0  0  0  0  0  0  0  0  0  0
  190.8786  160.6030  122.9574 N   0  0  0  0  0  0  0  0  0  0  0  0
  191.0881  159.6011  123.8288 C   0  0  0  0  0  0  0  0  0  0  0  0
  191.6135  158.3383  123.6697 C   0  0  0  0  0  0  0  0  0  0  0  0
  191.7245  157.4922  124.7565 C   0  0  0  0  0  0  0  0  0  0  0  0
  191.3050  157.9080  126.0278 C   0  0  0  0  0  0  0  0  0  0  0  0
  191.4336  157.0391  127.0713 F   0  0  0  0  0  0  0  0  0  0  0  0
  192.0673  157.8408  122.3829 C   0  0  0  0  0  0  0  0  0  0  0  0
  192.5925  156.5349  122.2181 N   0  0  0  0  0  0  0  0  0  0  0  0
  191.9968  158.5829  121.3763 O   0  0  0  0  0  0  0  0  0  0  0  0
  1  2  1  0
  2  3  1  0
  3  4  2  0
  3  5  1  0
  5  6  1  0
  6  7  2  0
  6  8  1  0
  8  9  2  0
  9 10  1  0
 10 11  1  0
 10 12  2  0
 12 13  1  0
 13 14  2  0
  5 15  1  0
 15 16  2  0
 16 17  1  0
 16 18  1  0
 18 19  2  0
 19 20  1  0
 20 21  2  0
 18 22  1  0
 22 23  2  0
 23 24  1  0
 24 25  2  0
 25 26  1  0
 26 27  1  0
 27 28  1  0
 28 29  1  0
 27 30  1  6
 30 31  1  0
 30 32  1  0
 30 33  1  0
 25 34  1  0
 34 35  1  0
 35 36  2  0
 36 37  1  0
 37 38  2  0
 38 39  1  0
 36 40  1  0
 40 41  1  0
 40 42  2  0
  9  2  1  0
 21 15  1  0
 38 22  1  0
 14  8  1  0
 35 23  1  0
 29 24  1  0
M  END
$$$$
