
     RDKit          3D

 42 47  0  0  0  0  0  0  0  0999 V2000
  190.4343  160.7943  132.2838 C   0  0  0  0  0  0  0  0  0  0  0  0
  190.5024  161.6582  131.1174 N   0  0  0  0  0  0  0  0  0  0  0  0
  190.0569  161.2644  129.9085 C   0  0  0  0  0  0  0  0  0  0  0  0
  189.5687  160.1035  129.8088 O   0  0  0  0  0  0  0  0  0  0  0  0
  190.0881  162.0045  128.7970 N   0  0  0  0  0  0  0  0  0  0  0  0
  190.6057  163.2478  128.8828 C   0  0  0  0  0  0  0  0  0  0  0  0
  190.6566  163.9880  127.8537 O   0  0  0  0  0  0  0  0  0  0  0  0
  191.0911  163.7468  130.0822 C   0  0  0  0  0  0  0  0  0  0  0  0
  191.0150  162.8974  131.1885 C   0  0  0  0  0  0  0  0  0  0  0  0
  191.4929  163.3824  132.3811 C   0  0  0  0  0  0  0  0  0  0  0  0
  191.4520  162.6205  133.4883 F   0  0  0  0  0  0  0  0  0  0  0  0
  192.0346  164.6522  132.5234 C   0  0  0  0  0  0  0  0  0  0  0  0
  192.1024  165.4880  131.4045 C   0  0  0  0  0  0  0  0  0  0  0  0
  191.6247  165.0060  130.2083 C   0  0  0  0  0  0  0  0  0  0  0  0
  189.6052  161.5481  127.5348 C   0  0  0  0  0  0  0  0  0  0  0  0
  190.3880  160.8982  126.6222 C   0  0  0  0  0  0  0  0  0  0  0  0
  191.8063  160.6532  126.9561 C   0  0  0  0  0  0  0  0  0  0  0  0
  189.8935  160.4640  125.4010 C   0  0  0  0  0  0  0  0  0  0  0  0
  188.5661  160.7101  125.1268 C   0  0  0  0  0  0  0  0  0  0  0  0
  187.7551  161.3645  126.0322 C   0  0  0  0  0  0  0  0  0  0  0  0
  188.2782  161.7854  127.2421 C   0  0  0  0  0  0  0  0  0  0  0  0
  190.7616  159.7822  124.4704 C   0  0  0  0  0  0  0  0  0  0  0  0
  190.8545  158.4133  124.4696 C   0  0  0  0  0  0  0  0  0  0  0  0
  190.2590  157.3926  125.1835 C   0  0  0  0  0  0  0  0  0  0  0  0
  190.7303  156.1579  124.7578 C   0  0  0  0  0  0  0  0  0  0  0  0
  190.2248  154.9078  125.3896 C   0  0  0  0  0  0  0  0  0  0  0  0
  190.0651  155.0660  126.8591 C   0  0  2  0  0  0  0  0  0  0  0  0
  189.8364  156.4611  127.3435 C   0  0  0  0  0  0  0  0  0  0  0  0
  189.2520  157.3564  126.2620 C   0  0  0  0  0  0  0  0  0  0  0  0
  191.1679  154.4140  127.6628 C   0  0  0  0  0  0  0  0  0  0  0  0
  191.2217  152.9331  127.4876 C   0  0  0  0  0  0  0  0  0  0  0  0
  191.1098  154.7348  129.1363 C   0  0  0  0  0  0  0  0  0  0  0  0
  192.3976  154.9487  127.1895 O   0  0  0  0  0  0  0  0  0  0  0  0
  191.6175  156.4252  123.7787 N   0  0  0  0  0  0  0  0  0  0  0  0
  191.7170  157.7509  123.5802 C   0  0  0  0  0  0  0  0  0  0  0  0
  192.4726  158.4955  122.7025 C   0  0  0  0  0  0  0  0  0  0  0  0
  192.3778  159.8740  122.7036 C   0  0  0  0  0  0  0  0  0  0  0  0
  191.5151  160.5273  123.5946 C   0  0  0  0  0  0  0  0  0  0  0  0
  191.4543  161.8895  123.5600 F   0  0  0  0  0  0  0  0  0  0  0  0
  193.3872  157.8866  121.7527 C   0  0  0  0  0  0  0  0  0  0  0  0
  194.0384  158.6357  120.7411 N   0  0  0  0  0  0  0  0  0  0  0  0
  193.6164  156.6571  121.8202 O   0  0  0  0  0  0  0  0  0  0  0  0
  1  2  1  0
  2  3  1  0
  3  4  2  0
  3  5  1  0
  5  6  1  0
  6  7  2  0
  6  8  1  0
  8  9  2  0
  9 10  1  0
 10 11  1  0
 10 12  2  0
 12 13  1  0
 13 14  2  0
  5 15  1  0
 15 16  2  0
 16 17  1  0
 16 18  1  0
 18 19  2  0
 19 20  1  0
 20 21  2  0
 18 22  1  0
 22 23  2  0
 23 24  1  0
 24 25  2  0
 25 26  1  0
 26 27  1  0
 27 28  1  0
 28 29  1  0
 27 30  1  1
 30 31  1  0
 30 32  1  0
 30 33  1  0
 25 34  1  0
 34 35  1  0
 35 36  2  0
 36 37  1  0
 37 38  2  0
 38 39  1  0
 36 40  1  0
 40 41  1  0
 40 42  2  0
  9  2  1  0
 21 15  1  0
 38 22  1  0
 14  8  1  0
 35 23  1  0
 29 24  1  0
M  END
$$$$
