
     RDKit          3D

 42 47  0  0  0  0  0  0  0  0999 V2000
  145.2400  156.3172  120.9345 C   0  0  0  0  0  0  0  0  0  0  0  0
  146.6481  156.6737  120.8951 N   0  0  0  0  0  0  0  0  0  0  0  0
  147.5235  156.0427  120.0887 C   0  0  0  0  0  0  0  0  0  0  0  0
  147.0847  155.1148  119.3522 O   0  0  0  0  0  0  0  0  0  0  0  0
  148.8277  156.3180  120.0014 N   0  0  0  0  0  0  0  0  0  0  0  0
  149.3161  157.3062  120.7801 C   0  0  0  0  0  0  0  0  0  0  0  0
  150.5484  157.6038  120.7319 O   0  0  0  0  0  0  0  0  0  0  0  0
  148.4965  158.0163  121.6446 C   0  0  0  0  0  0  0  0  0  0  0  0
  147.1474  157.6547  121.6644 C   0  0  0  0  0  0  0  0  0  0  0  0
  146.3274  158.3521  122.5172 C   0  0  0  0  0  0  0  0  0  0  0  0
  145.0172  158.0586  122.5895 F   0  0  0  0  0  0  0  0  0  0  0  0
  146.7785  159.3761  123.3383 C   0  0  0  0  0  0  0  0  0  0  0  0
  148.1324  159.7237  123.3045 C   0  0  0  0  0  0  0  0  0  0  0  0
  148.9569  159.0275  122.4517 C   0  0  0  0  0  0  0  0  0  0  0  0
  149.7213  155.6241  119.1329 C   0  0  0  0  0  0  0  0  0  0  0  0
  150.4962  154.5733  119.5372 C   0  0  0  0  0  0  0  0  0  0  0  0
  150.4062  154.1301  120.9438 C   0  0  0  0  0  0  0  0  0  0  0  0
  151.3576  153.9147  118.6719 C   0  0  0  0  0  0  0  0  0  0  0  0
  151.4126  154.3566  117.3683 C   0  0  0  0  0  0  0  0  0  0  0  0
  150.6399  155.4157  116.9357 C   0  0  0  0  0  0  0  0  0  0  0  0
  149.7903  156.0521  117.8234 C   0  0  0  0  0  0  0  0  0  0  0  0
  152.1559  152.8100  119.1481 C   0  0  0  0  0  0  0  0  0  0  0  0
  153.2652  153.0281  119.9256 C   0  0  0  0  0  0  0  0  0  0  0  0
  153.8838  154.1429  120.4554 C   0  0  0  0  0  0  0  0  0  0  0  0
  155.0037  153.7780  121.1908 C   0  0  0  0  0  0  0  0  0  0  0  0
  155.8310  154.8212  121.8575 C   0  0  0  0  0  0  0  0  0  0  0  0
  155.9869  156.0245  120.9986 C   0  0  2  0  0  0  0  0  0  0  0  0
  154.9001  156.2574  119.9996 C   0  0  0  0  0  0  0  0  0  0  0  0
  153.5951  155.5894  120.4038 C   0  0  0  0  0  0  0  0  0  0  0  0
  157.3374  156.1179  120.3245 C   0  0  0  0  0  0  0  0  0  0  0  0
  158.4217  155.4368  121.0908 C   0  0  0  0  0  0  0  0  0  0  0  0
  157.7625  157.5336  120.0206 C   0  0  0  0  0  0  0  0  0  0  0  0
  157.2202  155.4616  119.0685 O   0  0  0  0  0  0  0  0  0  0  0  0
  155.0694  152.4340  121.1106 N   0  0  0  0  0  0  0  0  0  0  0  0
  154.0556  151.9548  120.3693 C   0  0  0  0  0  0  0  0  0  0  0  0
  153.7019  150.6724  120.0137 C   0  0  0  0  0  0  0  0  0  0  0  0
  152.5843  150.4537  119.2313 C   0  0  0  0  0  0  0  0  0  0  0  0
  151.8012  151.5304  118.7923 C   0  0  0  0  0  0  0  0  0  0  0  0
  150.7069  151.2669  118.0218 F   0  0  0  0  0  0  0  0  0  0  0  0
  154.4663  149.5103  120.4315 C   0  0  0  0  0  0  0  0  0  0  0  0
  154.2819  148.2323  119.8475 N   0  0  0  0  0  0  0  0  0  0  0  0
  155.3215  149.6296  121.3389 O   0  0  0  0  0  0  0  0  0  0  0  0
  1  2  1  0
  2  3  1  0
  3  4  2  0
  3  5  1  0
  5  6  1  0
  6  7  2  0
  6  8  1  0
  8  9  2  0
  9 10  1  0
 10 11  1  0
 10 12  2  0
 12 13  1  0
 13 14  2  0
  5 15  1  0
 15 16  2  0
 16 17  1  0
 16 18  1  0
 18 19  2  0
 19 20  1  0
 20 21  2  0
 18 22  1  0
 22 23  2  0
 23 24  1  0
 24 25  2  0
 25 26  1  0
 26 27  1  0
 27 28  1  0
 28 29  1  0
 27 30  1  6
 30 31  1  0
 30 32  1  0
 30 33  1  0
 25 34  1  0
 34 35  1  0
 35 36  2  0
 36 37  1  0
 37 38  2  0
 38 39  1  0
 36 40  1  0
 40 41  1  0
 40 42  2  0
  9  2  1  0
 21 15  1  0
 38 22  1  0
 14  8  1  0
 35 23  1  0
 29 24  1  0
M  END
$$$$
