
     RDKit          3D

 42 47  0  0  0  0  0  0  0  0999 V2000
  153.4396  163.9749  140.9961 C   0  0  0  0  0  0  0  0  0  0  0  0
  153.7936  163.6754  139.6190 N   0  0  0  0  0  0  0  0  0  0  0  0
  154.7750  162.8074  139.3053 C   0  0  0  0  0  0  0  0  0  0  0  0
  155.3939  162.2482  140.2541 O   0  0  0  0  0  0  0  0  0  0  0  0
  155.1519  162.4856  138.0650 N   0  0  0  0  0  0  0  0  0  0  0  0
  154.5028  163.0723  137.0375 C   0  0  0  0  0  0  0  0  0  0  0  0
  154.8255  162.7981  135.8416 O   0  0  0  0  0  0  0  0  0  0  0  0
  153.4774  163.9803  137.2552 C   0  0  0  0  0  0  0  0  0  0  0  0
  153.1561  164.2519  138.5872 C   0  0  0  0  0  0  0  0  0  0  0  0
  152.1418  165.1497  138.8134 C   0  0  0  0  0  0  0  0  0  0  0  0
  151.7783  165.4596  140.0703 F   0  0  0  0  0  0  0  0  0  0  0  0
  151.4430  165.7805  137.7936 C   0  0  0  0  0  0  0  0  0  0  0  0
  151.7791  165.4958  136.4666 C   0  0  0  0  0  0  0  0  0  0  0  0
  152.7944  164.5972  136.2359 C   0  0  0  0  0  0  0  0  0  0  0  0
  156.1982  161.5602  137.7764 C   0  0  0  0  0  0  0  0  0  0  0  0
  157.4689  161.9423  137.4487 C   0  0  0  0  0  0  0  0  0  0  0  0
  157.7790  163.3858  137.3901 C   0  0  0  0  0  0  0  0  0  0  0  0
  158.4692  161.0216  137.1726 C   0  0  0  0  0  0  0  0  0  0  0  0
  158.1415  159.6853  137.2387 C   0  0  0  0  0  0  0  0  0  0  0  0
  156.8652  159.2741  137.5674 C   0  0  0  0  0  0  0  0  0  0  0  0
  155.8892  160.2172  137.8373 C   0  0  0  0  0  0  0  0  0  0  0  0
  159.7962  161.4762  136.8307 C   0  0  0  0  0  0  0  0  0  0  0  0
  160.8429  161.3077  137.7016 C   0  0  0  0  0  0  0  0  0  0  0  0
  160.9942  160.7367  138.9494 C   0  0  0  0  0  0  0  0  0  0  0  0
  162.3103  160.8422  139.3796 C   0  0  0  0  0  0  0  0  0  0  0  0
  162.7085  160.2924  140.7049 C   0  0  0  0  0  0  0  0  0  0  0  0
  161.6697  160.5505  141.7365 C   0  0  2  0  0  0  0  0  0  0  0  0
  160.2746  160.7201  141.2284 C   0  0  0  0  0  0  0  0  0  0  0  0
  160.0704  160.0544  139.8765 C   0  0  0  0  0  0  0  0  0  0  0  0
  162.0178  161.6813  142.6785 C   0  0  0  0  0  0  0  0  0  0  0  0
  163.4520  161.6782  143.0906 C   0  0  0  0  0  0  0  0  0  0  0  0
  161.1500  161.7264  143.9122 C   0  0  0  0  0  0  0  0  0  0  0  0
  161.7735  162.8945  141.9781 O   0  0  0  0  0  0  0  0  0  0  0  0
  162.9664  161.4801  138.3898 N   0  0  0  0  0  0  0  0  0  0  0  0
  162.1294  161.7712  137.3791 C   0  0  0  0  0  0  0  0  0  0  0  0
  162.3299  162.3999  136.1706 C   0  0  0  0  0  0  0  0  0  0  0  0
  161.2752  162.5684  135.2939 C   0  0  0  0  0  0  0  0  0  0  0  0
  159.9946  162.1034  135.6236 C   0  0  0  0  0  0  0  0  0  0  0  0
  158.9837  162.2919  134.7274 F   0  0  0  0  0  0  0  0  0  0  0  0
  163.6284  162.9072  135.7635 C   0  0  0  0  0  0  0  0  0  0  0  0
  163.8956  163.3270  134.4365 N   0  0  0  0  0  0  0  0  0  0  0  0
  164.5524  162.9809  136.6060 O   0  0  0  0  0  0  0  0  0  0  0  0
  1  2  1  0
  2  3  1  0
  3  4  2  0
  3  5  1  0
  5  6  1  0
  6  7  2  0
  6  8  1  0
  8  9  2  0
  9 10  1  0
 10 11  1  0
 10 12  2  0
 12 13  1  0
 13 14  2  0
  5 15  1  0
 15 16  2  0
 16 17  1  0
 16 18  1  0
 18 19  2  0
 19 20  1  0
 20 21  2  0
 18 22  1  0
 22 23  2  0
 23 24  1  0
 24 25  2  0
 25 26  1  0
 26 27  1  0
 27 28  1  0
 28 29  1  0
 27 30  1  6
 30 31  1  0
 30 32  1  0
 30 33  1  0
 25 34  1  0
 34 35  1  0
 35 36  2  0
 36 37  1  0
 37 38  2  0
 38 39  1  0
 36 40  1  0
 40 41  1  0
 40 42  2  0
  9  2  1  0
 21 15  1  0
 38 22  1  0
 14  8  1  0
 35 23  1  0
 29 24  1  0
M  END
$$$$
