
     RDKit          3D

 42 47  0  0  0  0  0  0  0  0999 V2000
  200.1270  168.7584  131.9509 C   0  0  0  0  0  0  0  0  0  0  0  0
  199.0232  167.9334  132.4118 N   0  0  0  0  0  0  0  0  0  0  0  0
  197.9615  167.6571  131.6299 C   0  0  0  0  0  0  0  0  0  0  0  0
  197.9459  168.1411  130.4631 O   0  0  0  0  0  0  0  0  0  0  0  0
  196.9150  166.9081  131.9877 N   0  0  0  0  0  0  0  0  0  0  0  0
  196.9128  166.3818  133.2303 C   0  0  0  0  0  0  0  0  0  0  0  0
  195.9405  165.6635  133.6152 O   0  0  0  0  0  0  0  0  0  0  0  0
  197.9593  166.6074  134.1120 C   0  0  0  0  0  0  0  0  0  0  0  0
  199.0081  167.4036  133.6457 C   0  0  0  0  0  0  0  0  0  0  0  0
  200.0494  167.6328  134.5112 C   0  0  0  0  0  0  0  0  0  0  0  0
  201.0933  168.3901  134.1308 F   0  0  0  0  0  0  0  0  0  0  0  0
  200.0964  167.1157  135.7983 C   0  0  0  0  0  0  0  0  0  0  0  0
  199.0372  166.3210  136.2472 C   0  0  0  0  0  0  0  0  0  0  0  0
  197.9924  166.0891  135.3833 C   0  0  0  0  0  0  0  0  0  0  0  0
  195.8093  166.6400  131.1273 C   0  0  0  0  0  0  0  0  0  0  0  0
  195.8722  165.7738  130.0720 C   0  0  0  0  0  0  0  0  0  0  0  0
  197.1477  165.0772  129.8057 C   0  0  0  0  0  0  0  0  0  0  0  0
  194.7816  165.5303  129.2501 C   0  0  0  0  0  0  0  0  0  0  0  0
  193.6099  166.1979  129.5313 C   0  0  0  0  0  0  0  0  0  0  0  0
  193.5211  167.0777  130.5914 C   0  0  0  0  0  0  0  0  0  0  0  0
  194.6271  167.2994  131.3930 C   0  0  0  0  0  0  0  0  0  0  0  0
  194.8992  164.6061  128.1472 C   0  0  0  0  0  0  0  0  0  0  0  0
  194.5043  163.2989  128.2805 C   0  0  0  0  0  0  0  0  0  0  0  0
  193.9401  162.5462  129.2910 C   0  0  0  0  0  0  0  0  0  0  0  0
  193.7377  161.2379  128.8722 C   0  0  0  0  0  0  0  0  0  0  0  0
  193.1367  160.2414  129.8014 C   0  0  0  0  0  0  0  0  0  0  0  0
  193.6568  160.4032  131.1846 C   0  0  2  0  0  0  0  0  0  0  0  0
  194.1435  161.7701  131.5422 C   0  0  0  0  0  0  0  0  0  0  0  0
  193.5175  162.8490  130.6724 C   0  0  0  0  0  0  0  0  0  0  0  0
  194.6915  159.3692  131.5685 C   0  0  0  0  0  0  0  0  0  0  0  0
  194.2826  157.9765  131.2222 C   0  0  0  0  0  0  0  0  0  0  0  0
  195.0831  159.4207  133.0250 C   0  0  0  0  0  0  0  0  0  0  0  0
  195.8699  159.6681  130.8310 O   0  0  0  0  0  0  0  0  0  0  0  0
  194.1797  161.1909  127.5996 N   0  0  0  0  0  0  0  0  0  0  0  0
  194.6407  162.3935  127.2149 C   0  0  0  0  0  0  0  0  0  0  0  0
  195.1779  162.8357  126.0267 C   0  0  0  0  0  0  0  0  0  0  0  0
  195.5746  164.1526  125.8932 C   0  0  0  0  0  0  0  0  0  0  0  0
  195.4355  165.0494  126.9616 C   0  0  0  0  0  0  0  0  0  0  0  0
  195.8407  166.3397  126.7844 F   0  0  0  0  0  0  0  0  0  0  0  0
  195.3521  161.9629  124.8790 C   0  0  0  0  0  0  0  0  0  0  0  0
  195.6809  162.4592  123.5929 N   0  0  0  0  0  0  0  0  0  0  0  0
  195.2094  160.7263  125.0186 O   0  0  0  0  0  0  0  0  0  0  0  0
  1  2  1  0
  2  3  1  0
  3  4  2  0
  3  5  1  0
  5  6  1  0
  6  7  2  0
  6  8  1  0
  8  9  2  0
  9 10  1  0
 10 11  1  0
 10 12  2  0
 12 13  1  0
 13 14  2  0
  5 15  1  0
 15 16  2  0
 16 17  1  0
 16 18  1  0
 18 19  2  0
 19 20  1  0
 20 21  2  0
 18 22  1  0
 22 23  2  0
 23 24  1  0
 24 25  2  0
 25 26  1  0
 26 27  1  0
 27 28  1  0
 28 29  1  0
 27 30  1  6
 30 31  1  0
 30 32  1  0
 30 33  1  0
 25 34  1  0
 34 35  1  0
 35 36  2  0
 36 37  1  0
 37 38  2  0
 38 39  1  0
 36 40  1  0
 40 41  1  0
 40 42  2  0
  9  2  1  0
 21 15  1  0
 38 22  1  0
 14  8  1  0
 35 23  1  0
 29 24  1  0
M  END
$$$$
