
     RDKit          3D

 42 47  0  0  0  0  0  0  0  0999 V2000
  187.7621  169.7209  117.8773 C   0  0  0  0  0  0  0  0  0  0  0  0
  187.2402  168.7319  118.8053 N   0  0  0  0  0  0  0  0  0  0  0  0
  187.6273  167.4421  118.7684 C   0  0  0  0  0  0  0  0  0  0  0  0
  188.4712  167.1039  117.8912 O   0  0  0  0  0  0  0  0  0  0  0  0
  187.1903  166.4825  119.5884 N   0  0  0  0  0  0  0  0  0  0  0  0
  186.2884  166.8236  120.5326 C   0  0  0  0  0  0  0  0  0  0  0  0
  185.8442  165.9465  121.3344 O   0  0  0  0  0  0  0  0  0  0  0  0
  185.8264  168.1256  120.6530 C   0  0  0  0  0  0  0  0  0  0  0  0
  186.3425  169.0576  119.7495 C   0  0  0  0  0  0  0  0  0  0  0  0
  185.8914  170.3499  119.8606 C   0  0  0  0  0  0  0  0  0  0  0  0
  186.3444  171.3006  119.0246 F   0  0  0  0  0  0  0  0  0  0  0  0
  184.9656  170.7530  120.8128 C   0  0  0  0  0  0  0  0  0  0  0  0
  184.4603  169.8057  121.7085 C   0  0  0  0  0  0  0  0  0  0  0  0
  184.9097  168.5104  121.6004 C   0  0  0  0  0  0  0  0  0  0  0  0
  187.6267  165.1265  119.5148 C   0  0  0  0  0  0  0  0  0  0  0  0
  188.7666  164.6713  120.1160 C   0  0  0  0  0  0  0  0  0  0  0  0
  189.5910  165.6285  120.8823 C   0  0  0  0  0  0  0  0  0  0  0  0
  189.1690  163.3465  120.0294 C   0  0  0  0  0  0  0  0  0  0  0  0
  188.3734  162.4846  119.3071 C   0  0  0  0  0  0  0  0  0  0  0  0
  187.2173  162.9201  118.6908 C   0  0  0  0  0  0  0  0  0  0  0  0
  186.8430  164.2481  118.7957 C   0  0  0  0  0  0  0  0  0  0  0  0
  190.3823  162.9151  120.6822 C   0  0  0  0  0  0  0  0  0  0  0  0
  190.3470  162.3653  121.9388 C   0  0  0  0  0  0  0  0  0  0  0  0
  189.3506  162.0570  122.8434 C   0  0  0  0  0  0  0  0  0  0  0  0
  189.8901  161.4961  123.9933 C   0  0  0  0  0  0  0  0  0  0  0  0
  188.9977  161.0830  125.1115 C   0  0  0  0  0  0  0  0  0  0  0  0
  187.9016  162.0642  125.3250 C   0  0  2  0  0  0  0  0  0  0  0  0
  187.5130  162.8770  124.1328 C   0  0  0  0  0  0  0  0  0  0  0  0
  187.8810  162.1923  122.8257 C   0  0  0  0  0  0  0  0  0  0  0  0
  188.1202  162.9680  126.5178 C   0  0  0  0  0  0  0  0  0  0  0  0
  188.6940  162.2533  127.6954 C   0  0  0  0  0  0  0  0  0  0  0  0
  186.8779  163.7092  126.9477 C   0  0  0  0  0  0  0  0  0  0  0  0
  189.0559  163.9617  126.1191 O   0  0  0  0  0  0  0  0  0  0  0  0
  191.2223  161.4609  123.7904 N   0  0  0  0  0  0  0  0  0  0  0  0
  191.5299  161.9673  122.5838 C   0  0  0  0  0  0  0  0  0  0  0  0
  192.7334  162.1352  121.9362 C   0  0  0  0  0  0  0  0  0  0  0  0
  192.7678  162.6882  120.6705 C   0  0  0  0  0  0  0  0  0  0  0  0
  191.5829  163.0832  120.0341 C   0  0  0  0  0  0  0  0  0  0  0  0
  191.6651  163.6245  118.7847 F   0  0  0  0  0  0  0  0  0  0  0  0
  193.9994  161.7498  122.5347 C   0  0  0  0  0  0  0  0  0  0  0  0
  195.2204  161.7904  121.8164 N   0  0  0  0  0  0  0  0  0  0  0  0
  194.0255  161.3664  123.7269 O   0  0  0  0  0  0  0  0  0  0  0  0
  1  2  1  0
  2  3  1  0
  3  4  2  0
  3  5  1  0
  5  6  1  0
  6  7  2  0
  6  8  1  0
  8  9  2  0
  9 10  1  0
 10 11  1  0
 10 12  2  0
 12 13  1  0
 13 14  2  0
  5 15  1  0
 15 16  2  0
 16 17  1  0
 16 18  1  0
 18 19  2  0
 19 20  1  0
 20 21  2  0
 18 22  1  0
 22 23  2  0
 23 24  1  0
 24 25  2  0
 25 26  1  0
 26 27  1  0
 27 28  1  0
 28 29  1  0
 27 30  1  1
 30 31  1  0
 30 32  1  0
 30 33  1  0
 25 34  1  0
 34 35  1  0
 35 36  2  0
 36 37  1  0
 37 38  2  0
 38 39  1  0
 36 40  1  0
 40 41  1  0
 40 42  2  0
  9  2  1  0
 21 15  1  0
 38 22  1  0
 14  8  1  0
 35 23  1  0
 29 24  1  0
M  END
$$$$
