
     RDKit          3D

 42 47  0  0  0  0  0  0  0  0999 V2000
  122.9975  168.2879  143.6042 C   0  0  0  0  0  0  0  0  0  0  0  0
  122.0007  167.4462  144.2440 N   0  0  0  0  0  0  0  0  0  0  0  0
  120.9550  166.9343  143.5662 C   0  0  0  0  0  0  0  0  0  0  0  0
  120.8577  167.2079  142.3367 O   0  0  0  0  0  0  0  0  0  0  0  0
  120.0044  166.1552  144.0891 N   0  0  0  0  0  0  0  0  0  0  0  0
  120.0906  165.8513  145.4012 C   0  0  0  0  0  0  0  0  0  0  0  0
  119.2110  165.1145  145.9425 O   0  0  0  0  0  0  0  0  0  0  0  0
  121.1292  166.3289  146.1864 C   0  0  0  0  0  0  0  0  0  0  0  0
  122.0742  167.1359  145.5485 C   0  0  0  0  0  0  0  0  0  0  0  0
  123.1068  167.6138  146.3175 C   0  0  0  0  0  0  0  0  0  0  0  0
  124.0534  168.3968  145.7710 F   0  0  0  0  0  0  0  0  0  0  0  0
  123.2420  167.3314  147.6697 C   0  0  0  0  0  0  0  0  0  0  0  0
  122.2859  166.5218  148.2906 C   0  0  0  0  0  0  0  0  0  0  0  0
  121.2502  166.0413  147.5238 C   0  0  0  0  0  0  0  0  0  0  0  0
  118.9121  165.6337  143.3345 C   0  0  0  0  0  0  0  0  0  0  0  0
  117.7772  166.3464  143.0661 C   0  0  0  0  0  0  0  0  0  0  0  0
  117.6727  167.7274  143.5809 C   0  0  0  0  0  0  0  0  0  0  0  0
  116.7285  165.8158  142.3291 C   0  0  0  0  0  0  0  0  0  0  0  0
  116.8640  164.5256  141.8656 C   0  0  0  0  0  0  0  0  0  0  0  0
  118.0003  163.7853  142.1234 C   0  0  0  0  0  0  0  0  0  0  0  0
  119.0291  164.3431  142.8619 C   0  0  0  0  0  0  0  0  0  0  0  0
  115.5501  166.6095  142.0731 C   0  0  0  0  0  0  0  0  0  0  0  0
  114.6394  166.8570  143.0691 C   0  0  0  0  0  0  0  0  0  0  0  0
  114.5435  166.5350  144.4082 C   0  0  0  0  0  0  0  0  0  0  0  0
  113.3814  167.0615  144.9561 C   0  0  0  0  0  0  0  0  0  0  0  0
  113.0674  166.8395  146.3947 C   0  0  0  0  0  0  0  0  0  0  0  0
  113.4138  165.4583  146.8212 C   0  0  2  0  0  0  0  0  0  0  0  0
  114.4882  164.7826  146.0323 C   0  0  0  0  0  0  0  0  0  0  0  0
  115.4043  165.7785  145.3383 C   0  0  0  0  0  0  0  0  0  0  0  0
  112.2156  164.5448  146.9508 C   0  0  0  0  0  0  0  0  0  0  0  0
  111.4122  164.4529  145.6966 C   0  0  0  0  0  0  0  0  0  0  0  0
  111.3024  164.9077  148.0961 C   0  0  0  0  0  0  0  0  0  0  0  0
  112.7144  163.2448  147.2389 O   0  0  0  0  0  0  0  0  0  0  0  0
  112.7645  167.7088  143.9474 N   0  0  0  0  0  0  0  0  0  0  0  0
  113.4807  167.6095  142.8142 C   0  0  0  0  0  0  0  0  0  0  0  0
  113.2679  168.1001  141.5454 C   0  0  0  0  0  0  0  0  0  0  0  0
  114.1860  167.8510  140.5433 C   0  0  0  0  0  0  0  0  0  0  0  0
  115.3394  167.0988  140.8058 C   0  0  0  0  0  0  0  0  0  0  0  0
  116.2179  166.8780  139.7859 F   0  0  0  0  0  0  0  0  0  0  0  0
  112.0959  168.8858  141.2014 C   0  0  0  0  0  0  0  0  0  0  0  0
  111.8193  169.2914  139.8720 N   0  0  0  0  0  0  0  0  0  0  0  0
  111.2942  169.2227  142.1030 O   0  0  0  0  0  0  0  0  0  0  0  0
  1  2  1  0
  2  3  1  0
  3  4  2  0
  3  5  1  0
  5  6  1  0
  6  7  2  0
  6  8  1  0
  8  9  2  0
  9 10  1  0
 10 11  1  0
 10 12  2  0
 12 13  1  0
 13 14  2  0
  5 15  1  0
 15 16  2  0
 16 17  1  0
 16 18  1  0
 18 19  2  0
 19 20  1  0
 20 21  2  0
 18 22  1  0
 22 23  2  0
 23 24  1  0
 24 25  2  0
 25 26  1  0
 26 27  1  0
 27 28  1  0
 28 29  1  0
 27 30  1  6
 30 31  1  0
 30 32  1  0
 30 33  1  0
 25 34  1  0
 34 35  1  0
 35 36  2  0
 36 37  1  0
 37 38  2  0
 38 39  1  0
 36 40  1  0
 40 41  1  0
 40 42  2  0
  9  2  1  0
 21 15  1  0
 38 22  1  0
 14  8  1  0
 35 23  1  0
 29 24  1  0
M  END
$$$$
