
     RDKit          3D

 42 47  0  0  0  0  0  0  0  0999 V2000
  166.1054  149.2732  126.6959 C   0  0  0  0  0  0  0  0  0  0  0  0
  165.4674  150.4327  126.0959 N   0  0  0  0  0  0  0  0  0  0  0  0
  165.8326  151.6915  126.4079 C   0  0  0  0  0  0  0  0  0  0  0  0
  166.7608  151.8450  127.2510 O   0  0  0  0  0  0  0  0  0  0  0  0
  165.2912  152.8002  125.8963 N   0  0  0  0  0  0  0  0  0  0  0  0
  164.2981  152.6574  124.9937 C   0  0  0  0  0  0  0  0  0  0  0  0
  163.7532  153.6815  124.4802 O   0  0  0  0  0  0  0  0  0  0  0  0
  163.8496  151.4037  124.6058 C   0  0  0  0  0  0  0  0  0  0  0  0
  164.4783  150.3051  125.1967 C   0  0  0  0  0  0  0  0  0  0  0  0
  164.0414  149.0591  124.8190 C   0  0  0  0  0  0  0  0  0  0  0  0
  164.6003  147.9558  125.3466 F   0  0  0  0  0  0  0  0  0  0  0  0
  163.0249  148.8571  123.8960 C   0  0  0  0  0  0  0  0  0  0  0  0
  162.4076  149.9691  123.3152 C   0  0  0  0  0  0  0  0  0  0  0  0
  162.8423  151.2188  123.6908 C   0  0  0  0  0  0  0  0  0  0  0  0
  165.7081  154.1163  126.2548 C   0  0  0  0  0  0  0  0  0  0  0  0
  165.0175  154.9110  127.1264 C   0  0  0  0  0  0  0  0  0  0  0  0
  163.7765  154.3839  127.7306 C   0  0  0  0  0  0  0  0  0  0  0  0
  165.4448  156.1882  127.4589 C   0  0  0  0  0  0  0  0  0  0  0  0
  166.6068  156.6436  126.8759 C   0  0  0  0  0  0  0  0  0  0  0  0
  167.3222  155.8600  125.9926 C   0  0  0  0  0  0  0  0  0  0  0  0
  166.8696  154.5900  125.6810 C   0  0  0  0  0  0  0  0  0  0  0  0
  164.6792  156.9888  128.3849 C   0  0  0  0  0  0  0  0  0  0  0  0
  165.0784  157.1285  129.6901 C   0  0  0  0  0  0  0  0  0  0  0  0
  166.1473  156.6782  130.4390 C   0  0  0  0  0  0  0  0  0  0  0  0
  166.0558  157.1357  131.7468 C   0  0  0  0  0  0  0  0  0  0  0  0
  167.1048  156.7728  132.7394 C   0  0  0  0  0  0  0  0  0  0  0  0
  167.5422  155.3612  132.5786 C   0  0  2  0  0  0  0  0  0  0  0  0
  167.3714  154.7773  131.2137 C   0  0  0  0  0  0  0  0  0  0  0  0
  167.3273  155.8462  130.1328 C   0  0  0  0  0  0  0  0  0  0  0  0
  166.9653  154.4252  133.6171 C   0  0  0  0  0  0  0  0  0  0  0  0
  167.2546  154.8550  135.0165 C   0  0  0  0  0  0  0  0  0  0  0  0
  167.3986  152.9904  133.4420 C   0  0  0  0  0  0  0  0  0  0  0  0
  165.5536  154.4360  133.4464 O   0  0  0  0  0  0  0  0  0  0  0  0
  164.9262  157.8695  131.7972 N   0  0  0  0  0  0  0  0  0  0  0  0
  164.3208  157.8881  130.5972 C   0  0  0  0  0  0  0  0  0  0  0  0
  163.1657  158.4958  130.1588 C   0  0  0  0  0  0  0  0  0  0  0  0
  162.7648  158.3551  128.8440 C   0  0  0  0  0  0  0  0  0  0  0  0
  163.5263  157.5950  127.9454 C   0  0  0  0  0  0  0  0  0  0  0  0
  163.0920  157.4837  126.6571 F   0  0  0  0  0  0  0  0  0  0  0  0
  162.3277  159.2969  131.0337 C   0  0  0  0  0  0  0  0  0  0  0  0
  161.1726  159.9721  130.5665 N   0  0  0  0  0  0  0  0  0  0  0  0
  162.6263  159.4020  132.2456 O   0  0  0  0  0  0  0  0  0  0  0  0
  1  2  1  0
  2  3  1  0
  3  4  2  0
  3  5  1  0
  5  6  1  0
  6  7  2  0
  6  8  1  0
  8  9  2  0
  9 10  1  0
 10 11  1  0
 10 12  2  0
 12 13  1  0
 13 14  2  0
  5 15  1  0
 15 16  2  0
 16 17  1  0
 16 18  1  0
 18 19  2  0
 19 20  1  0
 20 21  2  0
 18 22  1  0
 22 23  2  0
 23 24  1  0
 24 25  2  0
 25 26  1  0
 26 27  1  0
 27 28  1  0
 28 29  1  0
 27 30  1  1
 30 31  1  0
 30 32  1  0
 30 33  1  0
 25 34  1  0
 34 35  1  0
 35 36  2  0
 36 37  1  0
 37 38  2  0
 38 39  1  0
 36 40  1  0
 40 41  1  0
 40 42  2  0
  9  2  1  0
 21 15  1  0
 38 22  1  0
 14  8  1  0
 35 23  1  0
 29 24  1  0
M  END
$$$$
