
     RDKit          3D

 42 47  0  0  0  0  0  0  0  0999 V2000
  185.2120  180.5528  120.9364 C   0  0  0  0  0  0  0  0  0  0  0  0
  186.4798  179.9723  121.3454 N   0  0  0  0  0  0  0  0  0  0  0  0
  187.0664  180.2878  122.5164 C   0  0  0  0  0  0  0  0  0  0  0  0
  186.4783  181.1167  123.2668 O   0  0  0  0  0  0  0  0  0  0  0  0
  188.2273  179.7936  122.9547 N   0  0  0  0  0  0  0  0  0  0  0  0
  188.8712  178.9064  122.1676 C   0  0  0  0  0  0  0  0  0  0  0  0
  189.9771  178.4097  122.5415 O   0  0  0  0  0  0  0  0  0  0  0  0
  188.3503  178.5163  120.9429 C   0  0  0  0  0  0  0  0  0  0  0  0
  187.1311  179.0885  120.5721 C   0  0  0  0  0  0  0  0  0  0  0  0
  186.6067  178.7086  119.3610 C   0  0  0  0  0  0  0  0  0  0  0  0
  185.4364  179.2185  118.9387 F   0  0  0  0  0  0  0  0  0  0  0  0
  187.2277  177.8008  118.5145 C   0  0  0  0  0  0  0  0  0  0  0  0
  188.4476  177.2388  118.9029 C   0  0  0  0  0  0  0  0  0  0  0  0
  188.9761  177.6167  120.1152 C   0  0  0  0  0  0  0  0  0  0  0  0
  188.8145  180.1552  124.2033 C   0  0  0  0  0  0  0  0  0  0  0  0
  188.5445  179.5064  125.3755 C   0  0  0  0  0  0  0  0  0  0  0  0
  187.5980  178.3721  125.3527 C   0  0  0  0  0  0  0  0  0  0  0  0
  189.1296  179.8779  126.5772 C   0  0  0  0  0  0  0  0  0  0  0  0
  190.0074  180.9393  126.5575 C   0  0  0  0  0  0  0  0  0  0  0  0
  190.2964  181.6108  125.3864 C   0  0  0  0  0  0  0  0  0  0  0  0
  189.6963  181.2160  124.2037 C   0  0  0  0  0  0  0  0  0  0  0  0
  188.8110  179.1605  127.7889 C   0  0  0  0  0  0  0  0  0  0  0  0
  189.5704  178.0917  128.1932 C   0  0  0  0  0  0  0  0  0  0  0  0
  190.6984  177.4566  127.7132 C   0  0  0  0  0  0  0  0  0  0  0  0
  191.0555  176.4009  128.5414 C   0  0  0  0  0  0  0  0  0  0  0  0
  192.2477  175.5692  128.2184 C   0  0  0  0  0  0  0  0  0  0  0  0
  192.3504  175.3076  126.7586 C   0  0  2  0  0  0  0  0  0  0  0  0
  191.7065  176.3203  125.8681 C   0  0  0  0  0  0  0  0  0  0  0  0
  191.5712  177.6762  126.5433 C   0  0  0  0  0  0  0  0  0  0  0  0
  191.9134  173.9159  126.3595 C   0  0  0  0  0  0  0  0  0  0  0  0
  190.5130  173.6030  126.7690 C   0  0  0  0  0  0  0  0  0  0  0  0
  192.8298  172.8286  126.8645 C   0  0  0  0  0  0  0  0  0  0  0  0
  191.9709  173.8544  124.9400 O   0  0  0  0  0  0  0  0  0  0  0  0
  190.1418  176.3911  129.5325 N   0  0  0  0  0  0  0  0  0  0  0  0
  189.2466  177.3787  129.3596 C   0  0  0  0  0  0  0  0  0  0  0  0
  188.1516  177.7676  130.0984 C   0  0  0  0  0  0  0  0  0  0  0  0
  187.3879  178.8446  129.6909 C   0  0  0  0  0  0  0  0  0  0  0  0
  187.7177  179.5503  128.5255 C   0  0  0  0  0  0  0  0  0  0  0  0
  186.9352  180.6067  128.1617 F   0  0  0  0  0  0  0  0  0  0  0  0
  187.7510  177.0830  131.3150 C   0  0  0  0  0  0  0  0  0  0  0  0
  186.8197  177.6404  132.2263 N   0  0  0  0  0  0  0  0  0  0  0  0
  188.2389  175.9599  131.5788 O   0  0  0  0  0  0  0  0  0  0  0  0
  1  2  1  0
  2  3  1  0
  3  4  2  0
  3  5  1  0
  5  6  1  0
  6  7  2  0
  6  8  1  0
  8  9  2  0
  9 10  1  0
 10 11  1  0
 10 12  2  0
 12 13  1  0
 13 14  2  0
  5 15  1  0
 15 16  2  0
 16 17  1  0
 16 18  1  0
 18 19  2  0
 19 20  1  0
 20 21  2  0
 18 22  1  0
 22 23  2  0
 23 24  1  0
 24 25  2  0
 25 26  1  0
 26 27  1  0
 27 28  1  0
 28 29  1  0
 27 30  1  1
 30 31  1  0
 30 32  1  0
 30 33  1  0
 25 34  1  0
 34 35  1  0
 35 36  2  0
 36 37  1  0
 37 38  2  0
 38 39  1  0
 36 40  1  0
 40 41  1  0
 40 42  2  0
  9  2  1  0
 21 15  1  0
 38 22  1  0
 14  8  1  0
 35 23  1  0
 29 24  1  0
M  END
$$$$
