
     RDKit          3D

 42 47  0  0  0  0  0  0  0  0999 V2000
  146.9989  161.8059  132.4188 C   0  0  0  0  0  0  0  0  0  0  0  0
  146.3631  163.1084  132.3156 N   0  0  0  0  0  0  0  0  0  0  0  0
  146.6853  163.9869  131.3463 C   0  0  0  0  0  0  0  0  0  0  0  0
  147.5708  163.6468  130.5119 O   0  0  0  0  0  0  0  0  0  0  0  0
  146.1426  165.1976  131.1920 N   0  0  0  0  0  0  0  0  0  0  0  0
  145.1946  165.5797  132.0732 C   0  0  0  0  0  0  0  0  0  0  0  0
  144.6502  166.7207  131.9670 O   0  0  0  0  0  0  0  0  0  0  0  0
  144.7925  164.7476  133.1073 C   0  0  0  0  0  0  0  0  0  0  0  0
  145.4185  163.5013  133.1855 C   0  0  0  0  0  0  0  0  0  0  0  0
  145.0272  162.6699  134.2060 C   0  0  0  0  0  0  0  0  0  0  0  0
  145.5866  161.4549  134.3433 F   0  0  0  0  0  0  0  0  0  0  0  0
  144.0579  163.0138  135.1379 C   0  0  0  0  0  0  0  0  0  0  0  0
  143.4425  164.2657  135.0433 C   0  0  0  0  0  0  0  0  0  0  0  0
  143.8317  165.1013  134.0226 C   0  0  0  0  0  0  0  0  0  0  0  0
  146.5135  166.0984  130.1501 C   0  0  0  0  0  0  0  0  0  0  0  0
  147.5001  167.0349  130.2835 C   0  0  0  0  0  0  0  0  0  0  0  0
  148.2218  167.1214  131.5699 C   0  0  0  0  0  0  0  0  0  0  0  0
  147.8420  167.8995  129.2540 C   0  0  0  0  0  0  0  0  0  0  0  0
  147.1471  167.7872  128.0699 C   0  0  0  0  0  0  0  0  0  0  0  0
  146.1466  166.8494  127.9105 C   0  0  0  0  0  0  0  0  0  0  0  0
  145.8288  166.0012  128.9566 C   0  0  0  0  0  0  0  0  0  0  0  0
  148.8917  168.8721  129.4451 C   0  0  0  0  0  0  0  0  0  0  0  0
  150.1406  168.6720  128.9134 C   0  0  0  0  0  0  0  0  0  0  0  0
  150.7274  167.6919  128.1380 C   0  0  0  0  0  0  0  0  0  0  0  0
  152.0551  168.0039  127.8770 C   0  0  0  0  0  0  0  0  0  0  0  0
  152.8898  167.0852  127.0545 C   0  0  0  0  0  0  0  0  0  0  0  0
  152.6131  165.6609  127.3781 C   0  0  2  0  0  0  0  0  0  0  0  0
  151.2566  165.3703  127.9336 C   0  0  0  0  0  0  0  0  0  0  0  0
  150.2379  166.4311  127.5470 C   0  0  0  0  0  0  0  0  0  0  0  0
  153.6743  165.0180  128.2427 C   0  0  0  0  0  0  0  0  0  0  0  0
  153.9147  163.5846  127.9044 C   0  0  0  0  0  0  0  0  0  0  0  0
  153.3996  165.1365  129.7218 C   0  0  0  0  0  0  0  0  0  0  0  0
  154.8854  165.7250  128.0072 O   0  0  0  0  0  0  0  0  0  0  0  0
  152.2804  169.1805  128.4951 N   0  0  0  0  0  0  0  0  0  0  0  0
  151.1689  169.6069  129.1192 C   0  0  0  0  0  0  0  0  0  0  0  0
  150.9076  170.7346  129.8648 C   0  0  0  0  0  0  0  0  0  0  0  0
  149.6494  170.9357  130.3992 C   0  0  0  0  0  0  0  0  0  0  0  0
  148.6290  169.9976  130.1895 C   0  0  0  0  0  0  0  0  0  0  0  0
  147.4026  170.2376  130.7363 F   0  0  0  0  0  0  0  0  0  0  0  0
  151.9159  171.7475  130.1229 C   0  0  0  0  0  0  0  0  0  0  0  0
  151.6732  172.8604  130.9661 N   0  0  0  0  0  0  0  0  0  0  0  0
  153.0435  171.6444  129.5872 O   0  0  0  0  0  0  0  0  0  0  0  0
  1  2  1  0
  2  3  1  0
  3  4  2  0
  3  5  1  0
  5  6  1  0
  6  7  2  0
  6  8  1  0
  8  9  2  0
  9 10  1  0
 10 11  1  0
 10 12  2  0
 12 13  1  0
 13 14  2  0
  5 15  1  0
 15 16  2  0
 16 17  1  0
 16 18  1  0
 18 19  2  0
 19 20  1  0
 20 21  2  0
 18 22  1  0
 22 23  2  0
 23 24  1  0
 24 25  2  0
 25 26  1  0
 26 27  1  0
 27 28  1  0
 28 29  1  0
 27 30  1  1
 30 31  1  0
 30 32  1  0
 30 33  1  0
 25 34  1  0
 34 35  1  0
 35 36  2  0
 36 37  1  0
 37 38  2  0
 38 39  1  0
 36 40  1  0
 40 41  1  0
 40 42  2  0
  9  2  1  0
 21 15  1  0
 38 22  1  0
 14  8  1  0
 35 23  1  0
 29 24  1  0
M  END
$$$$
