
     RDKit          3D

 42 47  0  0  0  0  0  0  0  0999 V2000
  187.6306  162.4949  128.7635 C   0  0  0  0  0  0  0  0  0  0  0  0
  188.9468  162.2176  128.2138 N   0  0  0  0  0  0  0  0  0  0  0  0
  189.3200  160.9778  127.8417 C   0  0  0  0  0  0  0  0  0  0  0  0
  188.4835  160.0418  127.9844 O   0  0  0  0  0  0  0  0  0  0  0  0
  190.5101  160.6520  127.3303 N   0  0  0  0  0  0  0  0  0  0  0  0
  191.4177  161.6378  127.1699 C   0  0  0  0  0  0  0  0  0  0  0  0
  192.5618  161.3768  126.6879 O   0  0  0  0  0  0  0  0  0  0  0  0
  191.1306  162.9480  127.5224 C   0  0  0  0  0  0  0  0  0  0  0  0
  189.8593  163.1889  128.0488 C   0  0  0  0  0  0  0  0  0  0  0  0
  189.5652  164.4833  128.4008 C   0  0  0  0  0  0  0  0  0  0  0  0
  188.3608  164.7896  128.9141 F   0  0  0  0  0  0  0  0  0  0  0  0
  190.4616  165.5331  128.2565 C   0  0  0  0  0  0  0  0  0  0  0  0
  191.7294  165.2723  127.7278 C   0  0  0  0  0  0  0  0  0  0  0  0
  192.0278  163.9771  127.3739 C   0  0  0  0  0  0  0  0  0  0  0  0
  190.8652  159.3241  126.9491 C   0  0  0  0  0  0  0  0  0  0  0  0
  190.7410  158.8511  125.6728 C   0  0  0  0  0  0  0  0  0  0  0  0
  190.2135  159.7578  124.6323 C   0  0  0  0  0  0  0  0  0  0  0  0
  191.0940  157.5547  125.3278 C   0  0  0  0  0  0  0  0  0  0  0  0
  191.5829  156.7402  126.3255 C   0  0  0  0  0  0  0  0  0  0  0  0
  191.7177  157.1946  127.6221 C   0  0  0  0  0  0  0  0  0  0  0  0
  191.3567  158.4934  127.9346 C   0  0  0  0  0  0  0  0  0  0  0  0
  190.9434  157.1025  123.9650 C   0  0  0  0  0  0  0  0  0  0  0  0
  189.7907  156.4823  123.5537 C   0  0  0  0  0  0  0  0  0  0  0  0
  188.5898  156.1553  124.1511 C   0  0  0  0  0  0  0  0  0  0  0  0
  187.7494  155.5212  123.2457 C   0  0  0  0  0  0  0  0  0  0  0  0
  186.3936  155.0761  123.6714 C   0  0  0  0  0  0  0  0  0  0  0  0
  186.4137  154.5039  125.0433 C   0  0  2  0  0  0  0  0  0  0  0  0
  187.5100  154.9885  125.9357 C   0  0  0  0  0  0  0  0  0  0  0  0
  188.0410  156.3477  125.5077 C   0  0  0  0  0  0  0  0  0  0  0  0
  186.3540  152.9930  125.0714 C   0  0  0  0  0  0  0  0  0  0  0  0
  185.4854  152.4223  124.0006 C   0  0  0  0  0  0  0  0  0  0  0  0
  185.9263  152.4317  126.4052 C   0  0  0  0  0  0  0  0  0  0  0  0
  187.6771  152.5217  124.8496 O   0  0  0  0  0  0  0  0  0  0  0  0
  188.4396  155.4611  122.0894 N   0  0  0  0  0  0  0  0  0  0  0  0
  189.6531  156.0210  122.2338 C   0  0  0  0  0  0  0  0  0  0  0  0
  190.6946  156.2001  121.3511 C   0  0  0  0  0  0  0  0  0  0  0  0
  191.8547  156.8255  121.7661 C   0  0  0  0  0  0  0  0  0  0  0  0
  191.9841  157.2825  123.0850 C   0  0  0  0  0  0  0  0  0  0  0  0
  193.1474  157.8940  123.4502 F   0  0  0  0  0  0  0  0  0  0  0  0
  190.6307  155.7520  119.9711 C   0  0  0  0  0  0  0  0  0  0  0  0
  191.7414  155.8365  119.0950 N   0  0  0  0  0  0  0  0  0  0  0  0
  189.5617  155.2721  119.5285 O   0  0  0  0  0  0  0  0  0  0  0  0
  1  2  1  0
  2  3  1  0
  3  4  2  0
  3  5  1  0
  5  6  1  0
  6  7  2  0
  6  8  1  0
  8  9  2  0
  9 10  1  0
 10 11  1  0
 10 12  2  0
 12 13  1  0
 13 14  2  0
  5 15  1  0
 15 16  2  0
 16 17  1  0
 16 18  1  0
 18 19  2  0
 19 20  1  0
 20 21  2  0
 18 22  1  0
 22 23  2  0
 23 24  1  0
 24 25  2  0
 25 26  1  0
 26 27  1  0
 27 28  1  0
 28 29  1  0
 27 30  1  6
 30 31  1  0
 30 32  1  0
 30 33  1  0
 25 34  1  0
 34 35  1  0
 35 36  2  0
 36 37  1  0
 37 38  2  0
 38 39  1  0
 36 40  1  0
 40 41  1  0
 40 42  2  0
  9  2  1  0
 21 15  1  0
 38 22  1  0
 14  8  1  0
 35 23  1  0
 29 24  1  0
M  END
$$$$
