
     RDKit          3D

 42 47  0  0  0  0  0  0  0  0999 V2000
  149.7967  176.9319  150.0521 C   0  0  0  0  0  0  0  0  0  0  0  0
  148.7783  175.8985  150.1314 N   0  0  0  0  0  0  0  0  0  0  0  0
  148.7750  174.9708  151.1083 C   0  0  0  0  0  0  0  0  0  0  0  0
  149.6959  175.0196  151.9717 O   0  0  0  0  0  0  0  0  0  0  0  0
  147.8723  173.9955  151.2419 N   0  0  0  0  0  0  0  0  0  0  0  0
  146.8802  173.9263  150.3296 C   0  0  0  0  0  0  0  0  0  0  0  0
  145.9995  173.0172  150.4152 O   0  0  0  0  0  0  0  0  0  0  0  0
  146.7951  174.8348  149.2852 C   0  0  0  0  0  0  0  0  0  0  0  0
  147.7857  175.8181  149.2304 C   0  0  0  0  0  0  0  0  0  0  0  0
  147.7101  176.7227  148.1998 C   0  0  0  0  0  0  0  0  0  0  0  0
  148.6296  177.6969  148.0838 F   0  0  0  0  0  0  0  0  0  0  0  0
  146.7117  176.6960  147.2363 C   0  0  0  0  0  0  0  0  0  0  0  0
  145.7288  175.7041  147.3077 C   0  0  0  0  0  0  0  0  0  0  0  0
  145.8010  174.7963  148.3384 C   0  0  0  0  0  0  0  0  0  0  0  0
  147.9058  173.0317  152.2930 C   0  0  0  0  0  0  0  0  0  0  0  0
  147.1307  173.1180  153.4154 C   0  0  0  0  0  0  0  0  0  0  0  0
  146.2096  174.2654  153.5506 C   0  0  0  0  0  0  0  0  0  0  0  0
  147.1821  172.1665  154.4236 C   0  0  0  0  0  0  0  0  0  0  0  0
  148.0524  171.1113  154.2604 C   0  0  0  0  0  0  0  0  0  0  0  0
  148.8457  171.0017  153.1359 C   0  0  0  0  0  0  0  0  0  0  0  0
  148.7714  171.9675  152.1476 C   0  0  0  0  0  0  0  0  0  0  0  0
  146.3429  172.3032  155.5904 C   0  0  0  0  0  0  0  0  0  0  0  0
  146.8287  172.8664  156.7434 C   0  0  0  0  0  0  0  0  0  0  0  0
  148.0327  173.4215  157.1283 C   0  0  0  0  0  0  0  0  0  0  0  0
  147.9728  173.8550  158.4461 C   0  0  0  0  0  0  0  0  0  0  0  0
  149.1624  174.4902  159.0776 C   0  0  0  0  0  0  0  0  0  0  0  0
  150.4209  173.8065  158.6797 C   0  0  2  0  0  0  0  0  0  0  0  0
  150.3876  173.0914  157.3679 C   0  0  0  0  0  0  0  0  0  0  0  0
  149.3185  173.6448  156.4387 C   0  0  0  0  0  0  0  0  0  0  0  0
  150.9818  172.8970  159.7500 C   0  0  0  0  0  0  0  0  0  0  0  0
  150.9845  173.5216  161.1053 C   0  0  0  0  0  0  0  0  0  0  0  0
  152.3669  172.3846  159.4401 C   0  0  0  0  0  0  0  0  0  0  0  0
  150.1395  171.7527  159.8049 O   0  0  0  0  0  0  0  0  0  0  0  0
  146.7261  173.5640  158.8683 N   0  0  0  0  0  0  0  0  0  0  0  0
  146.0195  172.9780  157.8864 C   0  0  0  0  0  0  0  0  0  0  0  0
  144.7242  172.5135  157.8363 C   0  0  0  0  0  0  0  0  0  0  0  0
  144.2357  171.9471  156.6745 C   0  0  0  0  0  0  0  0  0  0  0  0
  145.0499  171.8392  155.5385 C   0  0  0  0  0  0  0  0  0  0  0  0
  144.5253  171.2730  154.4139 F   0  0  0  0  0  0  0  0  0  0  0  0
  143.8250  172.5919  158.9742 C   0  0  0  0  0  0  0  0  0  0  0  0
  142.4361  172.3337  158.8612 N   0  0  0  0  0  0  0  0  0  0  0  0
  144.2816  172.8975  160.0998 O   0  0  0  0  0  0  0  0  0  0  0  0
  1  2  1  0
  2  3  1  0
  3  4  2  0
  3  5  1  0
  5  6  1  0
  6  7  2  0
  6  8  1  0
  8  9  2  0
  9 10  1  0
 10 11  1  0
 10 12  2  0
 12 13  1  0
 13 14  2  0
  5 15  1  0
 15 16  2  0
 16 17  1  0
 16 18  1  0
 18 19  2  0
 19 20  1  0
 20 21  2  0
 18 22  1  0
 22 23  2  0
 23 24  1  0
 24 25  2  0
 25 26  1  0
 26 27  1  0
 27 28  1  0
 28 29  1  0
 27 30  1  1
 30 31  1  0
 30 32  1  0
 30 33  1  0
 25 34  1  0
 34 35  1  0
 35 36  2  0
 36 37  1  0
 37 38  2  0
 38 39  1  0
 36 40  1  0
 40 41  1  0
 40 42  2  0
  9  2  1  0
 21 15  1  0
 38 22  1  0
 14  8  1  0
 35 23  1  0
 29 24  1  0
M  END
$$$$
