
     RDKit          3D

 42 47  0  0  0  0  0  0  0  0999 V2000
  146.6189  162.2796  127.6570 C   0  0  0  0  0  0  0  0  0  0  0  0
  147.4135  163.4846  127.8240 N   0  0  0  0  0  0  0  0  0  0  0  0
  146.8943  164.6190  128.3325 C   0  0  0  0  0  0  0  0  0  0  0  0
  145.6763  164.6125  128.6676 O   0  0  0  0  0  0  0  0  0  0  0  0
  147.5648  165.7600  128.5137 N   0  0  0  0  0  0  0  0  0  0  0  0
  148.8675  165.7874  128.1619 C   0  0  0  0  0  0  0  0  0  0  0  0
  149.5456  166.8486  128.3154 O   0  0  0  0  0  0  0  0  0  0  0  0
  149.4953  164.6715  127.6293 C   0  0  0  0  0  0  0  0  0  0  0  0
  148.7104  163.5259  127.4782 C   0  0  0  0  0  0  0  0  0  0  0  0
  149.3230  162.4153  126.9517 C   0  0  0  0  0  0  0  0  0  0  0  0
  148.6294  161.2766  126.7776 F   0  0  0  0  0  0  0  0  0  0  0  0
  150.6583  162.3904  126.5741 C   0  0  0  0  0  0  0  0  0  0  0  0
  151.4279  163.5469  126.7329 C   0  0  0  0  0  0  0  0  0  0  0  0
  150.8180  164.6613  127.2599 C   0  0  0  0  0  0  0  0  0  0  0  0
  146.9758  166.9405  129.0559 C   0  0  0  0  0  0  0  0  0  0  0  0
  146.8820  167.1842  130.3975 C   0  0  0  0  0  0  0  0  0  0  0  0
  147.4170  166.1771  131.3370 C   0  0  0  0  0  0  0  0  0  0  0  0
  146.3043  168.3412  130.8995 C   0  0  0  0  0  0  0  0  0  0  0  0
  145.8181  169.2565  129.9921 C   0  0  0  0  0  0  0  0  0  0  0  0
  145.9011  169.0333  128.6322 C   0  0  0  0  0  0  0  0  0  0  0  0
  146.4831  167.8690  128.1627 C   0  0  0  0  0  0  0  0  0  0  0  0
  146.2287  168.5517  132.3259 C   0  0  0  0  0  0  0  0  0  0  0  0
  147.1962  169.2693  132.9827 C   0  0  0  0  0  0  0  0  0  0  0  0
  148.3418  169.9404  132.6041 C   0  0  0  0  0  0  0  0  0  0  0  0
  148.9611  170.5123  133.7075 C   0  0  0  0  0  0  0  0  0  0  0  0
  150.2200  171.2893  133.5372 C   0  0  0  0  0  0  0  0  0  0  0  0
  151.1263  170.6486  132.5483 C   0  0  2  0  0  0  0  0  0  0  0  0
  150.4652  169.7920  131.5175 C   0  0  0  0  0  0  0  0  0  0  0  0
  149.0071  170.1687  131.3065 C   0  0  0  0  0  0  0  0  0  0  0  0
  152.2806  169.9015  133.1782 C   0  0  0  0  0  0  0  0  0  0  0  0
  153.0055  170.7046  134.2060 C   0  0  0  0  0  0  0  0  0  0  0  0
  153.2750  169.3718  132.1743 C   0  0  0  0  0  0  0  0  0  0  0  0
  151.7315  168.7631  133.8298 O   0  0  0  0  0  0  0  0  0  0  0  0
  148.1901  170.1898  134.7651 N   0  0  0  0  0  0  0  0  0  0  0  0
  147.1353  169.4541  134.3741 C   0  0  0  0  0  0  0  0  0  0  0  0
  146.0863  168.9041  135.0762 C   0  0  0  0  0  0  0  0  0  0  0  0
  145.1121  168.1821  134.4137 C   0  0  0  0  0  0  0  0  0  0  0  0
  145.1805  168.0020  133.0252 C   0  0  0  0  0  0  0  0  0  0  0  0
  144.1966  167.2820  132.4136 F   0  0  0  0  0  0  0  0  0  0  0  0
  145.9517  169.0496  136.5149 C   0  0  0  0  0  0  0  0  0  0  0  0
  144.6914  169.0362  137.1631 N   0  0  0  0  0  0  0  0  0  0  0  0
  146.9784  169.1926  137.2180 O   0  0  0  0  0  0  0  0  0  0  0  0
  1  2  1  0
  2  3  1  0
  3  4  2  0
  3  5  1  0
  5  6  1  0
  6  7  2  0
  6  8  1  0
  8  9  2  0
  9 10  1  0
 10 11  1  0
 10 12  2  0
 12 13  1  0
 13 14  2  0
  5 15  1  0
 15 16  2  0
 16 17  1  0
 16 18  1  0
 18 19  2  0
 19 20  1  0
 20 21  2  0
 18 22  1  0
 22 23  2  0
 23 24  1  0
 24 25  2  0
 25 26  1  0
 26 27  1  0
 27 28  1  0
 28 29  1  0
 27 30  1  1
 30 31  1  0
 30 32  1  0
 30 33  1  0
 25 34  1  0
 34 35  1  0
 35 36  2  0
 36 37  1  0
 37 38  2  0
 38 39  1  0
 36 40  1  0
 40 41  1  0
 40 42  2  0
  9  2  1  0
 21 15  1  0
 38 22  1  0
 14  8  1  0
 35 23  1  0
 29 24  1  0
M  END
$$$$
