
     RDKit          3D

 42 47  0  0  0  0  0  0  0  0999 V2000
  149.5077  160.8401  130.3332 C   0  0  0  0  0  0  0  0  0  0  0  0
  148.3329  161.4858  130.8938 N   0  0  0  0  0  0  0  0  0  0  0  0
  148.4007  162.6788  131.5160 C   0  0  0  0  0  0  0  0  0  0  0  0
  149.5315  163.2354  131.6035 O   0  0  0  0  0  0  0  0  0  0  0  0
  147.3642  163.3282  132.0527 N   0  0  0  0  0  0  0  0  0  0  0  0
  146.1476  162.7502  131.9694 C   0  0  0  0  0  0  0  0  0  0  0  0
  145.1331  163.3291  132.4645 O   0  0  0  0  0  0  0  0  0  0  0  0
  145.9723  161.5225  131.3487 C   0  0  0  0  0  0  0  0  0  0  0  0
  147.1164  160.9219  130.8181 C   0  0  0  0  0  0  0  0  0  0  0  0
  146.9533  159.7059  130.2011 C   0  0  0  0  0  0  0  0  0  0  0  0
  148.0105  159.0690  129.6674 F   0  0  0  0  0  0  0  0  0  0  0  0
  145.7254  159.0688  130.0885 C   0  0  0  0  0  0  0  0  0  0  0  0
  144.5915  159.6856  130.6259 C   0  0  0  0  0  0  0  0  0  0  0  0
  144.7507  160.9036  131.2446 C   0  0  0  0  0  0  0  0  0  0  0  0
  147.4801  164.5919  132.7039 C   0  0  0  0  0  0  0  0  0  0  0  0
  147.4894  165.7833  132.0342 C   0  0  0  0  0  0  0  0  0  0  0  0
  147.3731  165.7660  130.5614 C   0  0  0  0  0  0  0  0  0  0  0  0
  147.6029  166.9995  132.6918 C   0  0  0  0  0  0  0  0  0  0  0  0
  147.7081  166.9743  134.0650 C   0  0  0  0  0  0  0  0  0  0  0  0
  147.7011  165.7840  134.7642 C   0  0  0  0  0  0  0  0  0  0  0  0
  147.5865  164.5871  134.0792 C   0  0  0  0  0  0  0  0  0  0  0  0
  147.6084  168.2311  131.9385 C   0  0  0  0  0  0  0  0  0  0  0  0
  148.7531  168.6754  131.3261 C   0  0  0  0  0  0  0  0  0  0  0  0
  150.0430  168.1994  131.2017 C   0  0  0  0  0  0  0  0  0  0  0  0
  150.8165  169.0730  130.4488 C   0  0  0  0  0  0  0  0  0  0  0  0
  152.2484  168.7623  130.1831 C   0  0  0  0  0  0  0  0  0  0  0  0
  152.9112  168.1812  131.3801 C   0  0  2  0  0  0  0  0  0  0  0  0
  152.0135  167.4751  132.3438 C   0  0  0  0  0  0  0  0  0  0  0  0
  150.7328  166.9873  131.6847 C   0  0  0  0  0  0  0  0  0  0  0  0
  153.7953  169.1603  132.1194 C   0  0  0  0  0  0  0  0  0  0  0  0
  154.7179  169.9108  131.2180 C   0  0  0  0  0  0  0  0  0  0  0  0
  154.5972  168.5279  133.2304 C   0  0  0  0  0  0  0  0  0  0  0  0
  152.9359  170.1073  132.7411 O   0  0  0  0  0  0  0  0  0  0  0  0
  149.9952  170.0871  130.1111 N   0  0  0  0  0  0  0  0  0  0  0  0
  148.7646  169.8858  130.6129 C   0  0  0  0  0  0  0  0  0  0  0  0
  147.6063  170.6261  130.5339 C   0  0  0  0  0  0  0  0  0  0  0  0
  146.4539  170.1775  131.1503 C   0  0  0  0  0  0  0  0  0  0  0  0
  146.4510  168.9688  131.8604 C   0  0  0  0  0  0  0  0  0  0  0  0
  145.2905  168.5655  132.4528 F   0  0  0  0  0  0  0  0  0  0  0  0
  147.5362  171.8869  129.8164 C   0  0  0  0  0  0  0  0  0  0  0  0
  146.3111  172.5618  129.5886 N   0  0  0  0  0  0  0  0  0  0  0  0
  148.5891  172.4057  129.3789 O   0  0  0  0  0  0  0  0  0  0  0  0
  1  2  1  0
  2  3  1  0
  3  4  2  0
  3  5  1  0
  5  6  1  0
  6  7  2  0
  6  8  1  0
  8  9  2  0
  9 10  1  0
 10 11  1  0
 10 12  2  0
 12 13  1  0
 13 14  2  0
  5 15  1  0
 15 16  2  0
 16 17  1  0
 16 18  1  0
 18 19  2  0
 19 20  1  0
 20 21  2  0
 18 22  1  0
 22 23  2  0
 23 24  1  0
 24 25  2  0
 25 26  1  0
 26 27  1  0
 27 28  1  0
 28 29  1  0
 27 30  1  1
 30 31  1  0
 30 32  1  0
 30 33  1  0
 25 34  1  0
 34 35  1  0
 35 36  2  0
 36 37  1  0
 37 38  2  0
 38 39  1  0
 36 40  1  0
 40 41  1  0
 40 42  2  0
  9  2  1  0
 21 15  1  0
 38 22  1  0
 14  8  1  0
 35 23  1  0
 29 24  1  0
M  END
$$$$
