
     RDKit          3D

 42 47  0  0  0  0  0  0  0  0999 V2000
  133.7380  162.4254  154.3611 C   0  0  0  0  0  0  0  0  0  0  0  0
  133.2480  161.0840  154.6290 N   0  0  0  0  0  0  0  0  0  0  0  0
  131.9595  160.7413  154.4363 C   0  0  0  0  0  0  0  0  0  0  0  0
  131.1699  161.6301  154.0091 O   0  0  0  0  0  0  0  0  0  0  0  0
  131.4421  159.5305  154.6609 N   0  0  0  0  0  0  0  0  0  0  0  0
  132.2694  158.5670  155.1175 C   0  0  0  0  0  0  0  0  0  0  0  0
  131.8237  157.4013  155.3454 O   0  0  0  0  0  0  0  0  0  0  0  0
  133.6135  158.8190  155.3482 C   0  0  0  0  0  0  0  0  0  0  0  0
  134.0602  160.1158  155.0836 C   0  0  0  0  0  0  0  0  0  0  0  0
  135.3898  160.3755  155.3087 C   0  0  0  0  0  0  0  0  0  0  0  0
  135.8902  161.6016  155.0761 F   0  0  0  0  0  0  0  0  0  0  0  0
  136.2823  159.4214  155.7772 C   0  0  0  0  0  0  0  0  0  0  0  0
  135.8165  158.1289  156.0364 C   0  0  0  0  0  0  0  0  0  0  0  0
  134.4854  157.8648  155.8122 C   0  0  0  0  0  0  0  0  0  0  0  0
  130.0694  159.2094  154.4436 C   0  0  0  0  0  0  0  0  0  0  0  0
  129.6247  158.5134  153.3546 C   0  0  0  0  0  0  0  0  0  0  0  0
  130.6124  158.0686  152.3498 C   0  0  0  0  0  0  0  0  0  0  0  0
  128.2834  158.2136  153.1667 C   0  0  0  0  0  0  0  0  0  0  0  0
  127.3935  158.6445  154.1259 C   0  0  0  0  0  0  0  0  0  0  0  0
  127.8179  159.3491  155.2347 C   0  0  0  0  0  0  0  0  0  0  0  0
  129.1630  159.6326  155.3934 C   0  0  0  0  0  0  0  0  0  0  0  0
  127.8639  157.4759  151.9987 C   0  0  0  0  0  0  0  0  0  0  0  0
  127.3877  156.1940  152.1106 C   0  0  0  0  0  0  0  0  0  0  0  0
  127.1529  155.3264  153.1586 C   0  0  0  0  0  0  0  0  0  0  0  0
  126.6471  154.1205  152.6915 C   0  0  0  0  0  0  0  0  0  0  0  0
  126.3177  153.0286  153.6490 C   0  0  0  0  0  0  0  0  0  0  0  0
  127.3329  152.9272  154.7301 C   0  0  2  0  0  0  0  0  0  0  0  0
  128.0845  154.1815  155.0383 C   0  0  0  0  0  0  0  0  0  0  0  0
  127.3186  155.4275  154.6217 C   0  0  0  0  0  0  0  0  0  0  0  0
  128.2983  151.7771  154.5500 C   0  0  0  0  0  0  0  0  0  0  0  0
  129.5486  152.1697  153.8362 C   0  0  0  0  0  0  0  0  0  0  0  0
  127.6895  150.5822  153.8580 C   0  0  0  0  0  0  0  0  0  0  0  0
  128.6655  151.3363  155.8511 O   0  0  0  0  0  0  0  0  0  0  0  0
  126.5718  154.2521  151.3521 N   0  0  0  0  0  0  0  0  0  0  0  0
  127.0018  155.4675  150.9718 C   0  0  0  0  0  0  0  0  0  0  0  0
  127.1065  156.0604  149.7335 C   0  0  0  0  0  0  0  0  0  0  0  0
  127.5856  157.3516  149.6219 C   0  0  0  0  0  0  0  0  0  0  0  0
  127.9690  158.0695  150.7632 C   0  0  0  0  0  0  0  0  0  0  0  0
  128.4362  159.3412  150.6051 F   0  0  0  0  0  0  0  0  0  0  0  0
  126.7288  155.3767  148.5091 C   0  0  0  0  0  0  0  0  0  0  0  0
  126.6003  156.0551  147.2714 N   0  0  0  0  0  0  0  0  0  0  0  0
  126.5063  154.1444  148.5355 O   0  0  0  0  0  0  0  0  0  0  0  0
  1  2  1  0
  2  3  1  0
  3  4  2  0
  3  5  1  0
  5  6  1  0
  6  7  2  0
  6  8  1  0
  8  9  2  0
  9 10  1  0
 10 11  1  0
 10 12  2  0
 12 13  1  0
 13 14  2  0
  5 15  1  0
 15 16  2  0
 16 17  1  0
 16 18  1  0
 18 19  2  0
 19 20  1  0
 20 21  2  0
 18 22  1  0
 22 23  2  0
 23 24  1  0
 24 25  2  0
 25 26  1  0
 26 27  1  0
 27 28  1  0
 28 29  1  0
 27 30  1  6
 30 31  1  0
 30 32  1  0
 30 33  1  0
 25 34  1  0
 34 35  1  0
 35 36  2  0
 36 37  1  0
 37 38  2  0
 38 39  1  0
 36 40  1  0
 40 41  1  0
 40 42  2  0
  9  2  1  0
 21 15  1  0
 38 22  1  0
 14  8  1  0
 35 23  1  0
 29 24  1  0
M  END
$$$$
