
     RDKit          3D

 42 47  0  0  0  0  0  0  0  0999 V2000
  135.6003  136.6168  132.8535 C   0  0  0  0  0  0  0  0  0  0  0  0
  134.8065  137.5306  133.6575 N   0  0  0  0  0  0  0  0  0  0  0  0
  133.5415  137.8579  133.3295 C   0  0  0  0  0  0  0  0  0  0  0  0
  133.0502  137.3428  132.2858 O   0  0  0  0  0  0  0  0  0  0  0  0
  132.7564  138.6884  134.0208 N   0  0  0  0  0  0  0  0  0  0  0  0
  133.2628  139.2491  135.1390 C   0  0  0  0  0  0  0  0  0  0  0  0
  132.5548  140.0444  135.8287 O   0  0  0  0  0  0  0  0  0  0  0  0
  134.5551  138.9763  135.5620 C   0  0  0  0  0  0  0  0  0  0  0  0
  135.2979  138.0955  134.7723 C   0  0  0  0  0  0  0  0  0  0  0  0
  136.5789  137.8188  135.1828 C   0  0  0  0  0  0  0  0  0  0  0  0
  137.3525  136.9798  134.4719 F   0  0  0  0  0  0  0  0  0  0  0  0
  137.1472  138.3680  136.3237 C   0  0  0  0  0  0  0  0  0  0  0  0
  136.3881  139.2476  137.1014 C   0  0  0  0  0  0  0  0  0  0  0  0
  135.1047  139.5273  136.6936 C   0  0  0  0  0  0  0  0  0  0  0  0
  131.4203  139.0088  133.6376 C   0  0  0  0  0  0  0  0  0  0  0  0
  131.1011  140.0827  132.8547 C   0  0  0  0  0  0  0  0  0  0  0  0
  132.1920  140.9581  132.3785 C   0  0  0  0  0  0  0  0  0  0  0  0
  129.7928  140.3723  132.4957 C   0  0  0  0  0  0  0  0  0  0  0  0
  128.8040  139.5322  132.9584 C   0  0  0  0  0  0  0  0  0  0  0  0
  129.1009  138.4412  133.7504 C   0  0  0  0  0  0  0  0  0  0  0  0
  130.4162  138.1790  134.0914 C   0  0  0  0  0  0  0  0  0  0  0  0
  129.5074  141.5194  131.6668 C   0  0  0  0  0  0  0  0  0  0  0  0
  129.3639  142.7673  132.2189 C   0  0  0  0  0  0  0  0  0  0  0  0
  129.4499  143.2875  133.4949 C   0  0  0  0  0  0  0  0  0  0  0  0
  129.2124  144.6555  133.4826 C   0  0  0  0  0  0  0  0  0  0  0  0
  129.2537  145.4315  134.7529 C   0  0  0  0  0  0  0  0  0  0  0  0
  128.6297  144.6782  135.8722 C   0  0  2  0  0  0  0  0  0  0  0  0
  128.6374  143.1897  135.7404 C   0  0  0  0  0  0  0  0  0  0  0  0
  129.7422  142.7002  134.8170 C   0  0  0  0  0  0  0  0  0  0  0  0
  127.2401  145.1585  136.2264 C   0  0  0  0  0  0  0  0  0  0  0  0
  127.0104  146.5914  135.8787 C   0  0  0  0  0  0  0  0  0  0  0  0
  126.8773  144.9379  137.6746 C   0  0  0  0  0  0  0  0  0  0  0  0
  126.3255  144.3789  135.4662 O   0  0  0  0  0  0  0  0  0  0  0  0
  128.9810  144.9729  132.1931 N   0  0  0  0  0  0  0  0  0  0  0  0
  129.0627  143.8796  131.4154 C   0  0  0  0  0  0  0  0  0  0  0  0
  128.9130  143.7028  130.0581 C   0  0  0  0  0  0  0  0  0  0  0  0
  129.0584  142.4459  129.5029 C   0  0  0  0  0  0  0  0  0  0  0  0
  129.3585  141.3411  130.3119 C   0  0  0  0  0  0  0  0  0  0  0  0
  129.4928  140.1194  129.7203 F   0  0  0  0  0  0  0  0  0  0  0  0
  128.6015  144.8010  129.1601 C   0  0  0  0  0  0  0  0  0  0  0  0
  128.5632  144.6410  127.7525 N   0  0  0  0  0  0  0  0  0  0  0  0
  128.3563  145.9339  129.6349 O   0  0  0  0  0  0  0  0  0  0  0  0
  1  2  1  0
  2  3  1  0
  3  4  2  0
  3  5  1  0
  5  6  1  0
  6  7  2  0
  6  8  1  0
  8  9  2  0
  9 10  1  0
 10 11  1  0
 10 12  2  0
 12 13  1  0
 13 14  2  0
  5 15  1  0
 15 16  2  0
 16 17  1  0
 16 18  1  0
 18 19  2  0
 19 20  1  0
 20 21  2  0
 18 22  1  0
 22 23  2  0
 23 24  1  0
 24 25  2  0
 25 26  1  0
 26 27  1  0
 27 28  1  0
 28 29  1  0
 27 30  1  6
 30 31  1  0
 30 32  1  0
 30 33  1  0
 25 34  1  0
 34 35  1  0
 35 36  2  0
 36 37  1  0
 37 38  2  0
 38 39  1  0
 36 40  1  0
 40 41  1  0
 40 42  2  0
  9  2  1  0
 21 15  1  0
 38 22  1  0
 14  8  1  0
 35 23  1  0
 29 24  1  0
M  END
$$$$
