
     RDKit          3D

 42 47  0  0  0  0  0  0  0  0999 V2000
  193.5099  162.7084  123.2959 C   0  0  0  0  0  0  0  0  0  0  0  0
  192.8664  161.4759  123.7180 N   0  0  0  0  0  0  0  0  0  0  0  0
  192.0066  161.4364  124.7544 C   0  0  0  0  0  0  0  0  0  0  0  0
  191.7672  162.5166  125.3643 O   0  0  0  0  0  0  0  0  0  0  0  0
  191.3806  160.3419  125.1953 N   0  0  0  0  0  0  0  0  0  0  0  0
  191.6229  159.1778  124.5570 C   0  0  0  0  0  0  0  0  0  0  0  0
  191.0515  158.1117  124.9395 O   0  0  0  0  0  0  0  0  0  0  0  0
  192.4922  159.1130  123.4783 C   0  0  0  0  0  0  0  0  0  0  0  0
  193.0984  160.3107  123.0920 C   0  0  0  0  0  0  0  0  0  0  0  0
  193.9609  160.2572  122.0246 C   0  0  0  0  0  0  0  0  0  0  0  0
  194.5809  161.3711  121.5971 F   0  0  0  0  0  0  0  0  0  0  0  0
  194.2446  159.0871  121.3341 C   0  0  0  0  0  0  0  0  0  0  0  0
  193.6281  157.8982  121.7356 C   0  0  0  0  0  0  0  0  0  0  0  0
  192.7636  157.9477  122.8042 C   0  0  0  0  0  0  0  0  0  0  0  0
  190.4764  160.3439  126.2985 C   0  0  0  0  0  0  0  0  0  0  0  0
  190.8746  160.1780  127.5954 C   0  0  0  0  0  0  0  0  0  0  0  0
  192.3132  159.9875  127.8733 C   0  0  0  0  0  0  0  0  0  0  0  0
  189.9746  160.1842  128.6510 C   0  0  0  0  0  0  0  0  0  0  0  0
  188.6423  160.3656  128.3517 C   0  0  0  0  0  0  0  0  0  0  0  0
  188.2152  160.5353  127.0499 C   0  0  0  0  0  0  0  0  0  0  0  0
  189.1378  160.5241  126.0186 C   0  0  0  0  0  0  0  0  0  0  0  0
  190.4454  160.0043  130.0039 C   0  0  0  0  0  0  0  0  0  0  0  0
  190.6882  161.0853  130.8132 C   0  0  0  0  0  0  0  0  0  0  0  0
  190.5701  162.4541  130.6776 C   0  0  0  0  0  0  0  0  0  0  0  0
  190.9598  163.0970  131.8451 C   0  0  0  0  0  0  0  0  0  0  0  0
  190.9151  164.5830  131.9293 C   0  0  0  0  0  0  0  0  0  0  0  0
  191.3691  165.2145  130.6624 C   0  0  2  0  0  0  0  0  0  0  0  0
  191.2038  164.3898  129.4272 C   0  0  0  0  0  0  0  0  0  0  0  0
  190.1199  163.3343  129.5817 C   0  0  0  0  0  0  0  0  0  0  0  0
  192.7749  165.7679  130.7301 C   0  0  0  0  0  0  0  0  0  0  0  0
  193.0212  166.5905  131.9506 C   0  0  0  0  0  0  0  0  0  0  0  0
  193.1680  166.5649  129.5104 C   0  0  0  0  0  0  0  0  0  0  0  0
  193.6573  164.6539  130.7762 O   0  0  0  0  0  0  0  0  0  0  0  0
  191.3170  162.1164  132.6983 N   0  0  0  0  0  0  0  0  0  0  0  0
  191.1689  160.9112  132.1218 C   0  0  0  0  0  0  0  0  0  0  0  0
  191.3946  159.6350  132.5868 C   0  0  0  0  0  0  0  0  0  0  0  0
  191.1491  158.5470  131.7712 C   0  0  0  0  0  0  0  0  0  0  0  0
  190.6699  158.7294  130.4666 C   0  0  0  0  0  0  0  0  0  0  0  0
  190.4420  157.6262  129.6974 F   0  0  0  0  0  0  0  0  0  0  0  0
  191.8907  159.3713  133.9261 C   0  0  0  0  0  0  0  0  0  0  0  0
  192.4497  158.1222  134.2945 N   0  0  0  0  0  0  0  0  0  0  0  0
  191.8277  160.2718  134.7944 O   0  0  0  0  0  0  0  0  0  0  0  0
  1  2  1  0
  2  3  1  0
  3  4  2  0
  3  5  1  0
  5  6  1  0
  6  7  2  0
  6  8  1  0
  8  9  2  0
  9 10  1  0
 10 11  1  0
 10 12  2  0
 12 13  1  0
 13 14  2  0
  5 15  1  0
 15 16  2  0
 16 17  1  0
 16 18  1  0
 18 19  2  0
 19 20  1  0
 20 21  2  0
 18 22  1  0
 22 23  2  0
 23 24  1  0
 24 25  2  0
 25 26  1  0
 26 27  1  0
 27 28  1  0
 28 29  1  0
 27 30  1  1
 30 31  1  0
 30 32  1  0
 30 33  1  0
 25 34  1  0
 34 35  1  0
 35 36  2  0
 36 37  1  0
 37 38  2  0
 38 39  1  0
 36 40  1  0
 40 41  1  0
 40 42  2  0
  9  2  1  0
 21 15  1  0
 38 22  1  0
 14  8  1  0
 35 23  1  0
 29 24  1  0
M  END
$$$$
