
     RDKit          3D

 42 47  0  0  0  0  0  0  0  0999 V2000
  183.7874  156.5303  133.5629 C   0  0  0  0  0  0  0  0  0  0  0  0
  184.2183  155.2147  133.1213 N   0  0  0  0  0  0  0  0  0  0  0  0
  184.2754  154.8809  131.8174 C   0  0  0  0  0  0  0  0  0  0  0  0
  183.9388  155.7546  130.9691 O   0  0  0  0  0  0  0  0  0  0  0  0
  184.6611  153.6939  131.3418 N   0  0  0  0  0  0  0  0  0  0  0  0
  185.0247  152.7469  132.2319 C   0  0  0  0  0  0  0  0  0  0  0  0
  185.3986  151.6040  131.8277 O   0  0  0  0  0  0  0  0  0  0  0  0
  185.0009  152.9916  133.5968 C   0  0  0  0  0  0  0  0  0  0  0  0
  184.5827  154.2632  133.9961 C   0  0  0  0  0  0  0  0  0  0  0  0
  184.5557  154.5155  135.3458 C   0  0  0  0  0  0  0  0  0  0  0  0
  184.1639  155.7176  135.8032 F   0  0  0  0  0  0  0  0  0  0  0  0
  184.9192  153.5777  136.3022 C   0  0  0  0  0  0  0  0  0  0  0  0
  185.3349  152.3103  135.8831 C   0  0  0  0  0  0  0  0  0  0  0  0
  185.3633  152.0537  134.5322 C   0  0  0  0  0  0  0  0  0  0  0  0
  184.7068  153.3813  129.9508 C   0  0  0  0  0  0  0  0  0  0  0  0
  185.8549  153.4198  129.2103 C   0  0  0  0  0  0  0  0  0  0  0  0
  187.1146  153.8034  129.8804 C   0  0  0  0  0  0  0  0  0  0  0  0
  185.8724  153.1107  127.8580 C   0  0  0  0  0  0  0  0  0  0  0  0
  184.6783  152.7568  127.2695 C   0  0  0  0  0  0  0  0  0  0  0  0
  183.5054  152.7105  127.9960 C   0  0  0  0  0  0  0  0  0  0  0  0
  183.5207  153.0246  129.3436 C   0  0  0  0  0  0  0  0  0  0  0  0
  187.1116  153.1669  127.1194 C   0  0  0  0  0  0  0  0  0  0  0  0
  187.7626  152.0169  126.7503 C   0  0  0  0  0  0  0  0  0  0  0  0
  187.5154  150.6658  126.8899 C   0  0  0  0  0  0  0  0  0  0  0  0
  188.5314  149.9197  126.3075 C   0  0  0  0  0  0  0  0  0  0  0  0
  188.4756  148.4319  126.3372 C   0  0  0  0  0  0  0  0  0  0  0  0
  187.9752  147.9313  127.6444 C   0  0  2  0  0  0  0  0  0  0  0  0
  187.0963  148.8681  128.4080 C   0  0  0  0  0  0  0  0  0  0  0  0
  186.4216  149.8884  127.5044 C   0  0  0  0  0  0  0  0  0  0  0  0
  189.0643  147.3940  128.5456 C   0  0  0  0  0  0  0  0  0  0  0  0
  190.1325  146.6649  127.8010 C   0  0  0  0  0  0  0  0  0  0  0  0
  188.5473  146.5125  129.6560 C   0  0  0  0  0  0  0  0  0  0  0  0
  189.6689  148.5145  129.1788 O   0  0  0  0  0  0  0  0  0  0  0  0
  189.4031  150.8189  125.8091 N   0  0  0  0  0  0  0  0  0  0  0  0
  188.9806  152.0716  126.0522 C   0  0  0  0  0  0  0  0  0  0  0  0
  189.5172  153.3005  125.7394 C   0  0  0  0  0  0  0  0  0  0  0  0
  188.8605  154.4581  126.1109 C   0  0  0  0  0  0  0  0  0  0  0  0
  187.6458  154.3947  126.8077 C   0  0  0  0  0  0  0  0  0  0  0  0
  187.0331  155.5631  127.1540 F   0  0  0  0  0  0  0  0  0  0  0  0
  190.7712  153.4417  125.0205 C   0  0  0  0  0  0  0  0  0  0  0  0
  191.2859  154.7049  124.6362 N   0  0  0  0  0  0  0  0  0  0  0  0
  191.4298  152.4182  124.7244 O   0  0  0  0  0  0  0  0  0  0  0  0
  1  2  1  0
  2  3  1  0
  3  4  2  0
  3  5  1  0
  5  6  1  0
  6  7  2  0
  6  8  1  0
  8  9  2  0
  9 10  1  0
 10 11  1  0
 10 12  2  0
 12 13  1  0
 13 14  2  0
  5 15  1  0
 15 16  2  0
 16 17  1  0
 16 18  1  0
 18 19  2  0
 19 20  1  0
 20 21  2  0
 18 22  1  0
 22 23  2  0
 23 24  1  0
 24 25  2  0
 25 26  1  0
 26 27  1  0
 27 28  1  0
 28 29  1  0
 27 30  1  1
 30 31  1  0
 30 32  1  0
 30 33  1  0
 25 34  1  0
 34 35  1  0
 35 36  2  0
 36 37  1  0
 37 38  2  0
 38 39  1  0
 36 40  1  0
 40 41  1  0
 40 42  2  0
  9  2  1  0
 21 15  1  0
 38 22  1  0
 14  8  1  0
 35 23  1  0
 29 24  1  0
M  END
$$$$
