
     RDKit          3D

 42 47  0  0  0  0  0  0  0  0999 V2000
  187.3411  165.5983  139.5883 C   0  0  0  0  0  0  0  0  0  0  0  0
  187.5511  164.2070  139.2258 N   0  0  0  0  0  0  0  0  0  0  0  0
  186.5330  163.3292  139.1375 C   0  0  0  0  0  0  0  0  0  0  0  0
  185.3674  163.7507  139.3821 O   0  0  0  0  0  0  0  0  0  0  0  0
  186.6532  162.0398  138.8103 N   0  0  0  0  0  0  0  0  0  0  0  0
  187.8902  161.5701  138.5452 C   0  0  0  0  0  0  0  0  0  0  0  0
  188.0543  160.3522  138.2299 O   0  0  0  0  0  0  0  0  0  0  0  0
  189.0043  162.3936  138.6087 C   0  0  0  0  0  0  0  0  0  0  0  0
  188.7765  163.7264  138.9596 C   0  0  0  0  0  0  0  0  0  0  0  0
  189.8734  164.5502  139.0250 C   0  0  0  0  0  0  0  0  0  0  0  0
  189.7300  165.8453  139.3566 F   0  0  0  0  0  0  0  0  0  0  0  0
  191.1658  164.1180  138.7622 C   0  0  0  0  0  0  0  0  0  0  0  0
  191.3739  162.7803  138.4126 C   0  0  0  0  0  0  0  0  0  0  0  0
  190.2779  161.9521  138.3459 C   0  0  0  0  0  0  0  0  0  0  0  0
  185.5470  161.1430  138.7284 C   0  0  0  0  0  0  0  0  0  0  0  0
  185.0449  160.4702  139.8070 C   0  0  0  0  0  0  0  0  0  0  0  0
  185.6762  160.6800  141.1262 C   0  0  0  0  0  0  0  0  0  0  0  0
  183.9671  159.6032  139.7006 C   0  0  0  0  0  0  0  0  0  0  0  0
  183.4050  159.4350  138.4543 C   0  0  0  0  0  0  0  0  0  0  0  0
  183.8940  160.1032  137.3496 C   0  0  0  0  0  0  0  0  0  0  0  0
  184.9707  160.9613  137.4884 C   0  0  0  0  0  0  0  0  0  0  0  0
  183.4741  158.9155  140.8703 C   0  0  0  0  0  0  0  0  0  0  0  0
  182.4502  159.4426  141.6162 C   0  0  0  0  0  0  0  0  0  0  0  0
  181.6578  160.5699  141.5300 C   0  0  0  0  0  0  0  0  0  0  0  0
  180.7477  160.6096  142.5780 C   0  0  0  0  0  0  0  0  0  0  0  0
  179.7862  161.7413  142.6889 C   0  0  0  0  0  0  0  0  0  0  0  0
  180.4269  163.0368  142.3410 C   0  0  2  0  0  0  0  0  0  0  0  0
  181.6017  162.9567  141.4208 C   0  0  0  0  0  0  0  0  0  0  0  0
  181.5841  161.6929  140.5751 C   0  0  0  0  0  0  0  0  0  0  0  0
  180.7698  163.8865  143.5441 C   0  0  0  0  0  0  0  0  0  0  0  0
  179.7165  163.8558  144.6008 C   0  0  0  0  0  0  0  0  0  0  0  0
  181.0805  165.3223  143.1989 C   0  0  0  0  0  0  0  0  0  0  0  0
  181.9597  163.3482  144.1064 O   0  0  0  0  0  0  0  0  0  0  0  0
  180.9846  159.5012  143.3076 N   0  0  0  0  0  0  0  0  0  0  0  0
  181.9862  158.7854  142.7679 C   0  0  0  0  0  0  0  0  0  0  0  0
  182.5736  157.5976  143.1421 C   0  0  0  0  0  0  0  0  0  0  0  0
  183.6041  157.0671  142.3899 C   0  0  0  0  0  0  0  0  0  0  0  0
  184.0615  157.7296  141.2423 C   0  0  0  0  0  0  0  0  0  0  0  0
  185.0812  157.1688  140.5307 F   0  0  0  0  0  0  0  0  0  0  0  0
  182.1518  156.8577  144.3185 C   0  0  0  0  0  0  0  0  0  0  0  0
  182.6924  155.5905  144.6506 N   0  0  0  0  0  0  0  0  0  0  0  0
  181.2803  157.3467  145.0737 O   0  0  0  0  0  0  0  0  0  0  0  0
  1  2  1  0
  2  3  1  0
  3  4  2  0
  3  5  1  0
  5  6  1  0
  6  7  2  0
  6  8  1  0
  8  9  2  0
  9 10  1  0
 10 11  1  0
 10 12  2  0
 12 13  1  0
 13 14  2  0
  5 15  1  0
 15 16  2  0
 16 17  1  0
 16 18  1  0
 18 19  2  0
 19 20  1  0
 20 21  2  0
 18 22  1  0
 22 23  2  0
 23 24  1  0
 24 25  2  0
 25 26  1  0
 26 27  1  0
 27 28  1  0
 28 29  1  0
 27 30  1  1
 30 31  1  0
 30 32  1  0
 30 33  1  0
 25 34  1  0
 34 35  1  0
 35 36  2  0
 36 37  1  0
 37 38  2  0
 38 39  1  0
 36 40  1  0
 40 41  1  0
 40 42  2  0
  9  2  1  0
 21 15  1  0
 38 22  1  0
 14  8  1  0
 35 23  1  0
 29 24  1  0
M  END
$$$$
