
     RDKit          3D

 42 47  0  0  0  0  0  0  0  0999 V2000
  185.3440  164.3593  119.3380 C   0  0  0  0  0  0  0  0  0  0  0  0
  186.5371  164.8256  120.0238 N   0  0  0  0  0  0  0  0  0  0  0  0
  187.4303  163.9743  120.5645 C   0  0  0  0  0  0  0  0  0  0  0  0
  187.2032  162.7358  120.4604 O   0  0  0  0  0  0  0  0  0  0  0  0
  188.5453  164.3323  121.2069 N   0  0  0  0  0  0  0  0  0  0  0  0
  188.8060  165.6508  121.3287 C   0  0  0  0  0  0  0  0  0  0  0  0
  189.8530  166.0393  121.9306 O   0  0  0  0  0  0  0  0  0  0  0  0
  187.9486  166.6077  120.8065 C   0  0  0  0  0  0  0  0  0  0  0  0
  186.8088  166.1345  120.1523 C   0  0  0  0  0  0  0  0  0  0  0  0
  185.9534  167.0743  119.6314 C   0  0  0  0  0  0  0  0  0  0  0  0
  184.8362  166.6920  118.9884 F   0  0  0  0  0  0  0  0  0  0  0  0
  186.1746  168.4409  119.7289 C   0  0  0  0  0  0  0  0  0  0  0  0
  187.3211  168.8954  120.3876 C   0  0  0  0  0  0  0  0  0  0  0  0
  188.1803  167.9574  120.9105 C   0  0  0  0  0  0  0  0  0  0  0  0
  189.4656  163.3968  121.7657 C   0  0  0  0  0  0  0  0  0  0  0  0
  190.5905  162.9713  121.1164 C   0  0  0  0  0  0  0  0  0  0  0  0
  190.8716  163.5053  119.7678 C   0  0  0  0  0  0  0  0  0  0  0  0
  191.4702  162.0602  121.6825 C   0  0  0  0  0  0  0  0  0  0  0  0
  191.1743  161.5862  122.9416 C   0  0  0  0  0  0  0  0  0  0  0  0
  190.0444  162.0006  123.6179 C   0  0  0  0  0  0  0  0  0  0  0  0
  189.1862  162.9106  123.0260 C   0  0  0  0  0  0  0  0  0  0  0  0
  192.6450  161.6415  120.9552 C   0  0  0  0  0  0  0  0  0  0  0  0
  192.6268  160.5072  120.1834 C   0  0  0  0  0  0  0  0  0  0  0  0
  191.6752  159.5611  119.8585 C   0  0  0  0  0  0  0  0  0  0  0  0
  192.2100  158.6005  119.0103 C   0  0  0  0  0  0  0  0  0  0  0  0
  191.3614  157.4765  118.5267 C   0  0  0  0  0  0  0  0  0  0  0  0
  190.4705  156.9649  119.6011 C   0  0  2  0  0  0  0  0  0  0  0  0
  190.1229  157.9398  120.6790 C   0  0  0  0  0  0  0  0  0  0  0  0
  190.2540  159.3817  120.2139 C   0  0  0  0  0  0  0  0  0  0  0  0
  190.9423  155.6647  120.2126 C   0  0  0  0  0  0  0  0  0  0  0  0
  191.9229  154.9371  119.3547 C   0  0  0  0  0  0  0  0  0  0  0  0
  189.8173  154.7281  120.5793 C   0  0  0  0  0  0  0  0  0  0  0  0
  191.5970  155.9931  121.4314 O   0  0  0  0  0  0  0  0  0  0  0  0
  193.4940  158.9616  118.8155 N   0  0  0  0  0  0  0  0  0  0  0  0
  193.7767  160.0867  119.4946 C   0  0  0  0  0  0  0  0  0  0  0  0
  194.9301  160.8310  119.6023 C   0  0  0  0  0  0  0  0  0  0  0  0
  194.9473  161.9736  120.3792 C   0  0  0  0  0  0  0  0  0  0  0  0
  193.7956  162.3860  121.0637 C   0  0  0  0  0  0  0  0  0  0  0  0
  193.8591  163.5202  121.8188 F   0  0  0  0  0  0  0  0  0  0  0  0
  196.1596  160.4635  118.9222 C   0  0  0  0  0  0  0  0  0  0  0  0
  197.3471  161.2283  119.0380 N   0  0  0  0  0  0  0  0  0  0  0  0
  196.1834  159.4365  118.2055 O   0  0  0  0  0  0  0  0  0  0  0  0
  1  2  1  0
  2  3  1  0
  3  4  2  0
  3  5  1  0
  5  6  1  0
  6  7  2  0
  6  8  1  0
  8  9  2  0
  9 10  1  0
 10 11  1  0
 10 12  2  0
 12 13  1  0
 13 14  2  0
  5 15  1  0
 15 16  2  0
 16 17  1  0
 16 18  1  0
 18 19  2  0
 19 20  1  0
 20 21  2  0
 18 22  1  0
 22 23  2  0
 23 24  1  0
 24 25  2  0
 25 26  1  0
 26 27  1  0
 27 28  1  0
 28 29  1  0
 27 30  1  1
 30 31  1  0
 30 32  1  0
 30 33  1  0
 25 34  1  0
 34 35  1  0
 35 36  2  0
 36 37  1  0
 37 38  2  0
 38 39  1  0
 36 40  1  0
 40 41  1  0
 40 42  2  0
  9  2  1  0
 21 15  1  0
 38 22  1  0
 14  8  1  0
 35 23  1  0
 29 24  1  0
M  END
$$$$
