
     RDKit          3D

 42 47  0  0  0  0  0  0  0  0999 V2000
  134.3700  139.2592  137.9093 C   0  0  0  0  0  0  0  0  0  0  0  0
  133.5948  138.8537  136.7491 N   0  0  0  0  0  0  0  0  0  0  0  0
  132.4580  139.4828  136.3929 C   0  0  0  0  0  0  0  0  0  0  0  0
  132.0723  140.4528  137.1044 O   0  0  0  0  0  0  0  0  0  0  0  0
  131.6978  139.1645  135.3417 N   0  0  0  0  0  0  0  0  0  0  0  0
  132.0929  138.1311  134.5689 C   0  0  0  0  0  0  0  0  0  0  0  0
  131.4034  137.7917  133.5595 O   0  0  0  0  0  0  0  0  0  0  0  0
  133.2488  137.4188  134.8512 C   0  0  0  0  0  0  0  0  0  0  0  0
  133.9763  137.8274  135.9715 C   0  0  0  0  0  0  0  0  0  0  0  0
  135.1228  137.1285  136.2595 C   0  0  0  0  0  0  0  0  0  0  0  0
  135.8735  137.4656  137.3229 F   0  0  0  0  0  0  0  0  0  0  0  0
  135.5731  136.0591  135.4980 C   0  0  0  0  0  0  0  0  0  0  0  0
  134.8314  135.6648  134.3802 C   0  0  0  0  0  0  0  0  0  0  0  0
  133.6825  136.3623  134.0885 C   0  0  0  0  0  0  0  0  0  0  0  0
  130.4991  139.8577  134.9996 C   0  0  0  0  0  0  0  0  0  0  0  0
  130.4549  140.8764  134.0894 C   0  0  0  0  0  0  0  0  0  0  0  0
  131.7097  141.2826  133.4233 C   0  0  0  0  0  0  0  0  0  0  0  0
  129.2753  141.5346  133.7740 C   0  0  0  0  0  0  0  0  0  0  0  0
  128.1265  141.1263  134.4152 C   0  0  0  0  0  0  0  0  0  0  0  0
  128.1451  140.1000  135.3383 C   0  0  0  0  0  0  0  0  0  0  0  0
  129.3381  139.4631  135.6315 C   0  0  0  0  0  0  0  0  0  0  0  0
  129.2812  142.6053  132.8056 C   0  0  0  0  0  0  0  0  0  0  0  0
  129.3528  143.9155  133.2068 C   0  0  0  0  0  0  0  0  0  0  0  0
  129.4546  144.5613  134.4227 C   0  0  0  0  0  0  0  0  0  0  0  0
  129.4965  145.9377  134.2438 C   0  0  0  0  0  0  0  0  0  0  0  0
  129.6060  146.8405  135.4230 C   0  0  0  0  0  0  0  0  0  0  0  0
  128.7700  146.3620  136.5552 C   0  0  2  0  0  0  0  0  0  0  0  0
  128.4893  144.8945  136.5836 C   0  0  0  0  0  0  0  0  0  0  0  0
  129.5339  144.0947  135.8208 C   0  0  0  0  0  0  0  0  0  0  0  0
  127.4836  147.1377  136.7298 C   0  0  0  0  0  0  0  0  0  0  0  0
  127.6229  148.5844  136.3914 C   0  0  0  0  0  0  0  0  0  0  0  0
  126.8850  147.0091  138.1091 C   0  0  0  0  0  0  0  0  0  0  0  0
  126.5349  146.5749  135.8326 O   0  0  0  0  0  0  0  0  0  0  0  0
  129.4206  146.1338  132.9124 N   0  0  0  0  0  0  0  0  0  0  0  0
  129.3348  144.9585  132.2657 C   0  0  0  0  0  0  0  0  0  0  0  0
  129.2447  144.6494  130.9270 C   0  0  0  0  0  0  0  0  0  0  0  0
  129.1734  143.3297  130.5239 C   0  0  0  0  0  0  0  0  0  0  0  0
  129.1915  142.2949  131.4694 C   0  0  0  0  0  0  0  0  0  0  0  0
  129.1189  141.0072  131.0255 F   0  0  0  0  0  0  0  0  0  0  0  0
  129.2201  145.6691  129.8931 C   0  0  0  0  0  0  0  0  0  0  0  0
  129.1254  145.3491  128.5157 N   0  0  0  0  0  0  0  0  0  0  0  0
  129.2841  146.8771  130.2180 O   0  0  0  0  0  0  0  0  0  0  0  0
  1  2  1  0
  2  3  1  0
  3  4  2  0
  3  5  1  0
  5  6  1  0
  6  7  2  0
  6  8  1  0
  8  9  2  0
  9 10  1  0
 10 11  1  0
 10 12  2  0
 12 13  1  0
 13 14  2  0
  5 15  1  0
 15 16  2  0
 16 17  1  0
 16 18  1  0
 18 19  2  0
 19 20  1  0
 20 21  2  0
 18 22  1  0
 22 23  2  0
 23 24  1  0
 24 25  2  0
 25 26  1  0
 26 27  1  0
 27 28  1  0
 28 29  1  0
 27 30  1  6
 30 31  1  0
 30 32  1  0
 30 33  1  0
 25 34  1  0
 34 35  1  0
 35 36  2  0
 36 37  1  0
 37 38  2  0
 38 39  1  0
 36 40  1  0
 40 41  1  0
 40 42  2  0
  9  2  1  0
 21 15  1  0
 38 22  1  0
 14  8  1  0
 35 23  1  0
 29 24  1  0
M  END
$$$$
