
     RDKit          3D

 42 47  0  0  0  0  0  0  0  0999 V2000
  190.8409  159.5304  122.9318 C   0  0  0  0  0  0  0  0  0  0  0  0
  191.3250  160.5671  123.8276 N   0  0  0  0  0  0  0  0  0  0  0  0
  190.8306  160.7266  125.0706 C   0  0  0  0  0  0  0  0  0  0  0  0
  189.9178  159.9392  125.4483 O   0  0  0  0  0  0  0  0  0  0  0  0
  191.2278  161.6552  125.9448 N   0  0  0  0  0  0  0  0  0  0  0  0
  192.2022  162.5061  125.5603 C   0  0  0  0  0  0  0  0  0  0  0  0
  192.6125  163.4048  126.3562 O   0  0  0  0  0  0  0  0  0  0  0  0
  192.7764  162.4247  124.3006 C   0  0  0  0  0  0  0  0  0  0  0  0
  192.2939  161.4204  123.4580 C   0  0  0  0  0  0  0  0  0  0  0  0
  192.8563  161.3313  122.2083 C   0  0  0  0  0  0  0  0  0  0  0  0
  192.4415  160.3890  121.3435 F   0  0  0  0  0  0  0  0  0  0  0  0
  193.8600  162.1805  121.7637 C   0  0  0  0  0  0  0  0  0  0  0  0
  194.3300  163.1797  122.6215 C   0  0  0  0  0  0  0  0  0  0  0  0
  193.7693  163.2721  123.8740 C   0  0  0  0  0  0  0  0  0  0  0  0
  190.6766  161.7899  127.2534 C   0  0  0  0  0  0  0  0  0  0  0  0
  191.3094  161.3524  128.3831 C   0  0  0  0  0  0  0  0  0  0  0  0
  192.6318  160.7075  128.2464 C   0  0  0  0  0  0  0  0  0  0  0  0
  190.7515  161.4959  129.6450 C   0  0  0  0  0  0  0  0  0  0  0  0
  189.5181  162.1031  129.7314 C   0  0  0  0  0  0  0  0  0  0  0  0
  188.8588  162.5535  128.6051 C   0  0  0  0  0  0  0  0  0  0  0  0
  189.4418  162.3955  127.3602 C   0  0  0  0  0  0  0  0  0  0  0  0
  191.4602  161.0163  130.8078 C   0  0  0  0  0  0  0  0  0  0  0  0
  192.0822  161.8913  131.6623 C   0  0  0  0  0  0  0  0  0  0  0  0
  192.2107  163.2641  131.7327 C   0  0  0  0  0  0  0  0  0  0  0  0
  192.9643  163.6289  132.8405 C   0  0  0  0  0  0  0  0  0  0  0  0
  193.2339  165.0667  133.1190 C   0  0  0  0  0  0  0  0  0  0  0  0
  193.5171  165.8201  131.8692 C   0  0  2  0  0  0  0  0  0  0  0  0
  192.9273  165.2533  130.6185 C   0  0  0  0  0  0  0  0  0  0  0  0
  191.7161  164.3778  130.8998 C   0  0  0  0  0  0  0  0  0  0  0  0
  194.9850  166.1177  131.6596 C   0  0  0  0  0  0  0  0  0  0  0  0
  195.6510  166.6620  132.8791 C   0  0  0  0  0  0  0  0  0  0  0  0
  195.2523  167.0421  130.4972 C   0  0  0  0  0  0  0  0  0  0  0  0
  195.6163  164.8848  131.3381 O   0  0  0  0  0  0  0  0  0  0  0  0
  193.2973  162.4738  133.4502 N   0  0  0  0  0  0  0  0  0  0  0  0
  192.7919  161.4234  132.7808 C   0  0  0  0  0  0  0  0  0  0  0  0
  192.8562  160.0676  133.0123 C   0  0  0  0  0  0  0  0  0  0  0  0
  192.2289  159.1872  132.1517 C   0  0  0  0  0  0  0  0  0  0  0  0
  191.5232  159.6624  131.0376 C   0  0  0  0  0  0  0  0  0  0  0  0
  190.9198  158.7567  130.2153 F   0  0  0  0  0  0  0  0  0  0  0  0
  193.5695  159.5047  134.1454 C   0  0  0  0  0  0  0  0  0  0  0  0
  193.4814  158.1330  134.4904 N   0  0  0  0  0  0  0  0  0  0  0  0
  194.2911  160.2480  134.8495 O   0  0  0  0  0  0  0  0  0  0  0  0
  1  2  1  0
  2  3  1  0
  3  4  2  0
  3  5  1  0
  5  6  1  0
  6  7  2  0
  6  8  1  0
  8  9  2  0
  9 10  1  0
 10 11  1  0
 10 12  2  0
 12 13  1  0
 13 14  2  0
  5 15  1  0
 15 16  2  0
 16 17  1  0
 16 18  1  0
 18 19  2  0
 19 20  1  0
 20 21  2  0
 18 22  1  0
 22 23  2  0
 23 24  1  0
 24 25  2  0
 25 26  1  0
 26 27  1  0
 27 28  1  0
 28 29  1  0
 27 30  1  6
 30 31  1  0
 30 32  1  0
 30 33  1  0
 25 34  1  0
 34 35  1  0
 35 36  2  0
 36 37  1  0
 37 38  2  0
 38 39  1  0
 36 40  1  0
 40 41  1  0
 40 42  2  0
  9  2  1  0
 21 15  1  0
 38 22  1  0
 14  8  1  0
 35 23  1  0
 29 24  1  0
M  END
$$$$
