
     RDKit          3D

 42 47  0  0  0  0  0  0  0  0999 V2000
  172.3990  150.6632  133.6602 C   0  0  0  0  0  0  0  0  0  0  0  0
  172.3274  150.1387  132.3070 N   0  0  0  0  0  0  0  0  0  0  0  0
  173.2374  149.2683  131.8281 C   0  0  0  0  0  0  0  0  0  0  0  0
  174.1739  148.9107  132.5970 O   0  0  0  0  0  0  0  0  0  0  0  0
  173.2327  148.7471  130.5983 N   0  0  0  0  0  0  0  0  0  0  0  0
  172.2403  149.1165  129.7617 C   0  0  0  0  0  0  0  0  0  0  0  0
  172.1939  148.6478  128.5837 O   0  0  0  0  0  0  0  0  0  0  0  0
  171.2548  150.0076  130.1592 C   0  0  0  0  0  0  0  0  0  0  0  0
  171.3456  150.4978  131.4641 C   0  0  0  0  0  0  0  0  0  0  0  0
  170.3743  151.3809  131.8675 C   0  0  0  0  0  0  0  0  0  0  0  0
  170.3979  151.8938  133.1102 F   0  0  0  0  0  0  0  0  0  0  0  0
  169.3332  151.7930  131.0475 C   0  0  0  0  0  0  0  0  0  0  0  0
  169.2591  151.2914  129.7445 C   0  0  0  0  0  0  0  0  0  0  0  0
  170.2301  150.4068  129.3367 C   0  0  0  0  0  0  0  0  0  0  0  0
  174.2173  147.8271  130.1305 C   0  0  0  0  0  0  0  0  0  0  0  0
  175.3451  148.2111  129.4608 C   0  0  0  0  0  0  0  0  0  0  0  0
  175.5596  149.6508  129.2071 C   0  0  0  0  0  0  0  0  0  0  0  0
  176.2881  147.2958  129.0164 C   0  0  0  0  0  0  0  0  0  0  0  0
  176.0530  145.9630  129.2730 C   0  0  0  0  0  0  0  0  0  0  0  0
  174.9215  145.5500  129.9475 C   0  0  0  0  0  0  0  0  0  0  0  0
  173.9994  146.4877  130.3780 C   0  0  0  0  0  0  0  0  0  0  0  0
  177.4632  147.7521  128.3127 C   0  0  0  0  0  0  0  0  0  0  0  0
  177.4575  147.8846  126.9470 C   0  0  0  0  0  0  0  0  0  0  0  0
  176.5195  147.7002  125.9509 C   0  0  0  0  0  0  0  0  0  0  0  0
  177.0630  147.9921  124.7069 C   0  0  0  0  0  0  0  0  0  0  0  0
  176.2296  147.8632  123.4796 C   0  0  0  0  0  0  0  0  0  0  0  0
  175.3575  146.6607  123.5369 C   0  0  2  0  0  0  0  0  0  0  0  0
  175.0030  146.1772  124.9057 C   0  0  0  0  0  0  0  0  0  0  0  0
  175.1049  147.2792  125.9488 C   0  0  0  0  0  0  0  0  0  0  0  0
  175.8573  145.5082  122.6949 C   0  0  0  0  0  0  0  0  0  0  0  0
  176.5167  145.9501  121.4313 C   0  0  0  0  0  0  0  0  0  0  0  0
  174.7886  144.4949  122.3654 C   0  0  0  0  0  0  0  0  0  0  0  0
  176.8300  144.8194  123.4703 O   0  0  0  0  0  0  0  0  0  0  0  0
  178.3388  148.3571  124.9440 N   0  0  0  0  0  0  0  0  0  0  0  0
  178.6082  148.3059  126.2599 C   0  0  0  0  0  0  0  0  0  0  0  0
  179.7495  148.5872  126.9769 C   0  0  0  0  0  0  0  0  0  0  0  0
  179.7540  148.4542  128.3523 C   0  0  0  0  0  0  0  0  0  0  0  0
  178.6017  148.0328  129.0302 C   0  0  0  0  0  0  0  0  0  0  0  0
  178.6525  147.9157  130.3882 F   0  0  0  0  0  0  0  0  0  0  0  0
  180.9789  149.0275  126.3413 C   0  0  0  0  0  0  0  0  0  0  0  0
  182.1449  149.3413  127.0832 N   0  0  0  0  0  0  0  0  0  0  0  0
  181.0222  149.1375  125.0944 O   0  0  0  0  0  0  0  0  0  0  0  0
  1  2  1  0
  2  3  1  0
  3  4  2  0
  3  5  1  0
  5  6  1  0
  6  7  2  0
  6  8  1  0
  8  9  2  0
  9 10  1  0
 10 11  1  0
 10 12  2  0
 12 13  1  0
 13 14  2  0
  5 15  1  0
 15 16  2  0
 16 17  1  0
 16 18  1  0
 18 19  2  0
 19 20  1  0
 20 21  2  0
 18 22  1  0
 22 23  2  0
 23 24  1  0
 24 25  2  0
 25 26  1  0
 26 27  1  0
 27 28  1  0
 28 29  1  0
 27 30  1  1
 30 31  1  0
 30 32  1  0
 30 33  1  0
 25 34  1  0
 34 35  1  0
 35 36  2  0
 36 37  1  0
 37 38  2  0
 38 39  1  0
 36 40  1  0
 40 41  1  0
 40 42  2  0
  9  2  1  0
 21 15  1  0
 38 22  1  0
 14  8  1  0
 35 23  1  0
 29 24  1  0
M  END
$$$$
