
     RDKit          3D

 42 47  0  0  0  0  0  0  0  0999 V2000
  147.3272  177.0162  159.5107 C   0  0  0  0  0  0  0  0  0  0  0  0
  146.5648  176.1031  160.3452 N   0  0  0  0  0  0  0  0  0  0  0  0
  145.2235  176.0087  160.2620 C   0  0  0  0  0  0  0  0  0  0  0  0
  144.6306  176.7469  159.4256 O   0  0  0  0  0  0  0  0  0  0  0  0
  144.4612  175.1934  160.9957 N   0  0  0  0  0  0  0  0  0  0  0  0
  145.0757  174.3966  161.8949 C   0  0  0  0  0  0  0  0  0  0  0  0
  144.3935  173.6053  162.6146 O   0  0  0  0  0  0  0  0  0  0  0  0
  146.4529  174.4186  162.0571 C   0  0  0  0  0  0  0  0  0  0  0  0
  147.1634  175.3047  161.2439 C   0  0  0  0  0  0  0  0  0  0  0  0
  148.5278  175.3340  161.3968 C   0  0  0  0  0  0  0  0  0  0  0  0
  149.2765  176.1625  160.6478 F   0  0  0  0  0  0  0  0  0  0  0  0
  149.2085  174.5361  162.3058 C   0  0  0  0  0  0  0  0  0  0  0  0
  148.4801  173.6554  163.1112 C   0  0  0  0  0  0  0  0  0  0  0  0
  147.1133  173.6232  162.9611 C   0  0  0  0  0  0  0  0  0  0  0  0
  143.0415  175.1249  160.8759 C   0  0  0  0  0  0  0  0  0  0  0  0
  142.4040  174.3958  159.9115 C   0  0  0  0  0  0  0  0  0  0  0  0
  143.2229  173.6382  158.9427 C   0  0  0  0  0  0  0  0  0  0  0  0
  141.0209  174.3456  159.8168 C   0  0  0  0  0  0  0  0  0  0  0  0
  140.2923  175.0643  160.7388 C   0  0  0  0  0  0  0  0  0  0  0  0
  140.9129  175.8083  161.7224 C   0  0  0  0  0  0  0  0  0  0  0  0
  142.2947  175.8382  161.7903 C   0  0  0  0  0  0  0  0  0  0  0  0
  140.3952  173.5607  158.7791 C   0  0  0  0  0  0  0  0  0  0  0  0
  139.8199  172.3483  159.0651 C   0  0  0  0  0  0  0  0  0  0  0  0
  139.6362  171.5993  160.2102 C   0  0  0  0  0  0  0  0  0  0  0  0
  138.9678  170.4173  159.9198 C   0  0  0  0  0  0  0  0  0  0  0  0
  138.6589  169.4482  161.0074 C   0  0  0  0  0  0  0  0  0  0  0  0
  139.7852  169.3328  161.9707 C   0  0  2  0  0  0  0  0  0  0  0  0
  140.6815  170.5243  162.0713 C   0  0  0  0  0  0  0  0  0  0  0  0
  139.9887  171.8037  161.6288 C   0  0  0  0  0  0  0  0  0  0  0  0
  140.6109  168.0785  161.7912 C   0  0  0  0  0  0  0  0  0  0  0  0
  141.4522  168.1038  160.5590 C   0  0  0  0  0  0  0  0  0  0  0  0
  139.7918  166.8111  161.8035 C   0  0  0  0  0  0  0  0  0  0  0  0
  141.4862  167.9949  162.9087 O   0  0  0  0  0  0  0  0  0  0  0  0
  138.7413  170.4445  158.5913 N   0  0  0  0  0  0  0  0  0  0  0  0
  139.2318  171.5736  158.0514 C   0  0  0  0  0  0  0  0  0  0  0  0
  139.2383  172.0479  156.7588 C   0  0  0  0  0  0  0  0  0  0  0  0
  139.8173  173.2693  156.4718 C   0  0  0  0  0  0  0  0  0  0  0  0
  140.4023  174.0359  157.4892 C   0  0  0  0  0  0  0  0  0  0  0  0
  140.9620  175.2353  157.1594 F   0  0  0  0  0  0  0  0  0  0  0  0
  138.6518  171.3077  155.6554 C   0  0  0  0  0  0  0  0  0  0  0  0
  138.5052  171.8665  154.3613 N   0  0  0  0  0  0  0  0  0  0  0  0
  138.2581  170.1333  155.8421 O   0  0  0  0  0  0  0  0  0  0  0  0
  1  2  1  0
  2  3  1  0
  3  4  2  0
  3  5  1  0
  5  6  1  0
  6  7  2  0
  6  8  1  0
  8  9  2  0
  9 10  1  0
 10 11  1  0
 10 12  2  0
 12 13  1  0
 13 14  2  0
  5 15  1  0
 15 16  2  0
 16 17  1  0
 16 18  1  0
 18 19  2  0
 19 20  1  0
 20 21  2  0
 18 22  1  0
 22 23  2  0
 23 24  1  0
 24 25  2  0
 25 26  1  0
 26 27  1  0
 27 28  1  0
 28 29  1  0
 27 30  1  6
 30 31  1  0
 30 32  1  0
 30 33  1  0
 25 34  1  0
 34 35  1  0
 35 36  2  0
 36 37  1  0
 37 38  2  0
 38 39  1  0
 36 40  1  0
 40 41  1  0
 40 42  2  0
  9  2  1  0
 21 15  1  0
 38 22  1  0
 14  8  1  0
 35 23  1  0
 29 24  1  0
M  END
$$$$
