
     RDKit          3D

 42 47  0  0  0  0  0  0  0  0999 V2000
  190.6504  163.4402  125.1247 C   0  0  0  0  0  0  0  0  0  0  0  0
  190.2849  162.0576  124.8676 N   0  0  0  0  0  0  0  0  0  0  0  0
  191.1251  161.1964  124.2615 C   0  0  0  0  0  0  0  0  0  0  0  0
  192.2612  161.6259  123.9140 O   0  0  0  0  0  0  0  0  0  0  0  0
  190.8557  159.9156  123.9948 N   0  0  0  0  0  0  0  0  0  0  0  0
  189.6472  159.4374  124.3583 C   0  0  0  0  0  0  0  0  0  0  0  0
  189.3458  158.2272  124.1260 O   0  0  0  0  0  0  0  0  0  0  0  0
  188.7112  160.2439  124.9882 C   0  0  0  0  0  0  0  0  0  0  0  0
  189.0859  161.5688  125.2238 C   0  0  0  0  0  0  0  0  0  0  0  0
  188.1659  162.3755  125.8473 C   0  0  0  0  0  0  0  0  0  0  0  0
  188.4576  163.6623  126.1063 F   0  0  0  0  0  0  0  0  0  0  0  0
  186.9105  161.9340  126.2413 C   0  0  0  0  0  0  0  0  0  0  0  0
  186.5534  160.6045  125.9967 C   0  0  0  0  0  0  0  0  0  0  0  0
  187.4721  159.7933  125.3726 C   0  0  0  0  0  0  0  0  0  0  0  0
  191.7754  159.0365  123.3499 C   0  0  0  0  0  0  0  0  0  0  0  0
  191.9155  158.9612  121.9924 C   0  0  0  0  0  0  0  0  0  0  0  0
  191.0742  159.8330  121.1466 C   0  0  0  0  0  0  0  0  0  0  0  0
  192.8182  158.0974  121.3897 C   0  0  0  0  0  0  0  0  0  0  0  0
  193.5852  157.3016  122.2119 C   0  0  0  0  0  0  0  0  0  0  0  0
  193.4624  157.3592  123.5857 C   0  0  0  0  0  0  0  0  0  0  0  0
  192.5524  158.2315  124.1568 C   0  0  0  0  0  0  0  0  0  0  0  0
  192.9281  158.0548  119.9508 C   0  0  0  0  0  0  0  0  0  0  0  0
  193.7819  158.8983  119.2858 C   0  0  0  0  0  0  0  0  0  0  0  0
  194.6839  159.8729  119.6632 C   0  0  0  0  0  0  0  0  0  0  0  0
  195.3016  160.4258  118.5493 C   0  0  0  0  0  0  0  0  0  0  0  0
  196.3175  161.5016  118.7163 C   0  0  0  0  0  0  0  0  0  0  0  0
  195.9233  162.4631  119.7794 C   0  0  2  0  0  0  0  0  0  0  0  0
  195.0146  161.9277  120.8381 C   0  0  0  0  0  0  0  0  0  0  0  0
  195.1112  160.4156  120.9676 C   0  0  0  0  0  0  0  0  0  0  0  0
  195.3808  163.7697  119.2449 C   0  0  0  0  0  0  0  0  0  0  0  0
  196.2272  164.3559  118.1648 C   0  0  0  0  0  0  0  0  0  0  0  0
  195.1544  164.8103  120.3140 C   0  0  0  0  0  0  0  0  0  0  0  0
  194.1029  163.4908  118.6871 O   0  0  0  0  0  0  0  0  0  0  0  0
  194.7751  159.7855  117.4863 N   0  0  0  0  0  0  0  0  0  0  0  0
  193.8715  158.8733  117.8840 C   0  0  0  0  0  0  0  0  0  0  0  0
  193.0883  157.9864  117.1798 C   0  0  0  0  0  0  0  0  0  0  0  0
  192.2293  157.1369  117.8504 C   0  0  0  0  0  0  0  0  0  0  0  0
  192.1456  157.1684  119.2493 C   0  0  0  0  0  0  0  0  0  0  0  0
  191.2838  156.3116  119.8686 F   0  0  0  0  0  0  0  0  0  0  0  0
  193.1225  157.8991  115.7305 C   0  0  0  0  0  0  0  0  0  0  0  0
  192.2577  157.0444  115.0025 N   0  0  0  0  0  0  0  0  0  0  0  0
  193.9406  158.5992  115.0906 O   0  0  0  0  0  0  0  0  0  0  0  0
  1  2  1  0
  2  3  1  0
  3  4  2  0
  3  5  1  0
  5  6  1  0
  6  7  2  0
  6  8  1  0
  8  9  2  0
  9 10  1  0
 10 11  1  0
 10 12  2  0
 12 13  1  0
 13 14  2  0
  5 15  1  0
 15 16  2  0
 16 17  1  0
 16 18  1  0
 18 19  2  0
 19 20  1  0
 20 21  2  0
 18 22  1  0
 22 23  2  0
 23 24  1  0
 24 25  2  0
 25 26  1  0
 26 27  1  0
 27 28  1  0
 28 29  1  0
 27 30  1  6
 30 31  1  0
 30 32  1  0
 30 33  1  0
 25 34  1  0
 34 35  1  0
 35 36  2  0
 36 37  1  0
 37 38  2  0
 38 39  1  0
 36 40  1  0
 40 41  1  0
 40 42  2  0
  9  2  1  0
 21 15  1  0
 38 22  1  0
 14  8  1  0
 35 23  1  0
 29 24  1  0
M  END
$$$$
