
     RDKit          3D

 42 47  0  0  0  0  0  0  0  0999 V2000
  132.5515  177.8308  147.0686 C   0  0  0  0  0  0  0  0  0  0  0  0
  132.8845  179.2446  147.0280 N   0  0  0  0  0  0  0  0  0  0  0  0
  133.8213  179.7822  147.8332 C   0  0  0  0  0  0  0  0  0  0  0  0
  134.4162  179.0145  148.6413 O   0  0  0  0  0  0  0  0  0  0  0  0
  134.1772  181.0695  147.8492 N   0  0  0  0  0  0  0  0  0  0  0  0
  133.5535  181.9059  146.9933 C   0  0  0  0  0  0  0  0  0  0  0  0
  133.8578  183.1373  146.9719 O   0  0  0  0  0  0  0  0  0  0  0  0
  132.5743  181.4504  146.1232 C   0  0  0  0  0  0  0  0  0  0  0  0
  132.2718  180.0879  146.1815 C   0  0  0  0  0  0  0  0  0  0  0  0
  131.3034  179.6269  145.3237 C   0  0  0  0  0  0  0  0  0  0  0  0
  130.9602  178.3269  145.3241 F   0  0  0  0  0  0  0  0  0  0  0  0
  130.6322  180.4440  144.4248 C   0  0  0  0  0  0  0  0  0  0  0  0
  130.9487  181.8052  144.3812 C   0  0  0  0  0  0  0  0  0  0  0  0
  131.9180  182.2707  145.2387 C   0  0  0  0  0  0  0  0  0  0  0  0
  135.1758  181.5984  148.7197 C   0  0  0  0  0  0  0  0  0  0  0  0
  136.4381  181.9200  148.3060 C   0  0  0  0  0  0  0  0  0  0  0  0
  136.7901  181.7117  146.8862 C   0  0  0  0  0  0  0  0  0  0  0  0
  137.3914  182.4335  149.1732 C   0  0  0  0  0  0  0  0  0  0  0  0
  137.0248  182.6143  150.4887 C   0  0  0  0  0  0  0  0  0  0  0  0
  135.7560  182.2971  150.9310 C   0  0  0  0  0  0  0  0  0  0  0  0
  134.8275  181.7865  150.0411 C   0  0  0  0  0  0  0  0  0  0  0  0
  138.7117  182.7571  148.6871 C   0  0  0  0  0  0  0  0  0  0  0  0
  139.5876  181.7670  148.3197 C   0  0  0  0  0  0  0  0  0  0  0  0
  139.5361  180.3886  148.2608 C   0  0  0  0  0  0  0  0  0  0  0  0
  140.7393  179.8734  147.7972 C   0  0  0  0  0  0  0  0  0  0  0  0
  140.9140  178.4018  147.6512 C   0  0  0  0  0  0  0  0  0  0  0  0
  140.2881  177.6640  148.7798 C   0  0  2  0  0  0  0  0  0  0  0  0
  139.1582  178.3602  149.4668 C   0  0  0  0  0  0  0  0  0  0  0  0
  138.4913  179.3938  148.5727 C   0  0  0  0  0  0  0  0  0  0  0  0
  141.2829  177.1606  149.8016 C   0  0  0  0  0  0  0  0  0  0  0  0
  142.3892  176.3625  149.1966 C   0  0  0  0  0  0  0  0  0  0  0  0
  140.6508  176.3626  150.9155 C   0  0  0  0  0  0  0  0  0  0  0  0
  141.8629  178.3052  150.4144 O   0  0  0  0  0  0  0  0  0  0  0  0
  141.5295  180.9418  147.5711 N   0  0  0  0  0  0  0  0  0  0  0  0
  140.8808  182.0807  147.8691 C   0  0  0  0  0  0  0  0  0  0  0  0
  141.2619  183.4020  147.7988 C   0  0  0  0  0  0  0  0  0  0  0  0
  140.3789  184.3984  148.1684 C   0  0  0  0  0  0  0  0  0  0  0  0
  139.0905  184.0768  148.6174 C   0  0  0  0  0  0  0  0  0  0  0  0
  138.2528  185.0933  148.9717 F   0  0  0  0  0  0  0  0  0  0  0  0
  142.5801  183.8084  147.3441 C   0  0  0  0  0  0  0  0  0  0  0  0
  142.9420  185.1700  147.1904 N   0  0  0  0  0  0  0  0  0  0  0  0
  143.4355  182.9337  147.0755 O   0  0  0  0  0  0  0  0  0  0  0  0
  1  2  1  0
  2  3  1  0
  3  4  2  0
  3  5  1  0
  5  6  1  0
  6  7  2  0
  6  8  1  0
  8  9  2  0
  9 10  1  0
 10 11  1  0
 10 12  2  0
 12 13  1  0
 13 14  2  0
  5 15  1  0
 15 16  2  0
 16 17  1  0
 16 18  1  0
 18 19  2  0
 19 20  1  0
 20 21  2  0
 18 22  1  0
 22 23  2  0
 23 24  1  0
 24 25  2  0
 25 26  1  0
 26 27  1  0
 27 28  1  0
 28 29  1  0
 27 30  1  1
 30 31  1  0
 30 32  1  0
 30 33  1  0
 25 34  1  0
 34 35  1  0
 35 36  2  0
 36 37  1  0
 37 38  2  0
 38 39  1  0
 36 40  1  0
 40 41  1  0
 40 42  2  0
  9  2  1  0
 21 15  1  0
 38 22  1  0
 14  8  1  0
 35 23  1  0
 29 24  1  0
M  END
$$$$
