
     RDKit          3D

 30 35  0  0  0  0  0  0  0  0999 V2000
  151.5979  165.9658  129.2982 C   0  0  1  0  0  0  0  0  0  0  0  0
  151.9778  164.8887  128.2917 C   0  0  0  0  0  0  0  0  0  0  0  0
  150.7676  164.7358  127.4847 C   0  0  1  0  0  0  0  0  0  0  0  0
  150.5186  163.4552  126.8031 C   0  0  2  0  0  0  0  0  0  0  0  0
  151.7179  163.0513  126.0004 C   0  0  0  0  0  0  0  0  0  0  0  0
  151.3196  162.5190  124.6708 C   0  0  0  0  0  0  0  0  0  0  0  0
  150.0361  161.6793  124.7300 C   0  0  2  0  0  0  0  0  0  0  0  0
  149.8551  161.1122  123.3640 C   0  0  0  0  0  0  0  0  0  0  0  0
  148.4917  160.6131  123.0511 C   0  0  1  0  0  0  0  0  0  0  0  0
  148.3352  159.2921  123.4942 O   0  0  0  0  0  0  0  0  0  0  0  0
  147.3811  161.5122  123.5181 C   0  0  0  0  0  0  0  0  0  0  0  0
  148.0191  162.8196  123.9925 C   0  0  0  0  0  0  0  0  0  0  0  0
  148.8628  162.5069  125.2079 C   0  0  1  0  0  0  0  0  0  0  0  0
  148.0294  161.6964  126.1488 C   0  0  0  0  0  0  0  0  0  0  0  0
  149.3915  163.7700  125.8062 C   0  0  1  0  0  0  0  0  0  0  0  0
  148.3778  164.6921  126.3613 C   0  0  0  0  0  0  0  0  0  0  0  0
  148.3634  164.9067  127.8183 C   0  0  0  0  0  0  0  0  0  0  0  0
  149.6534  164.9226  128.5265 C   0  0  1  0  0  0  0  0  0  0  0  0
  149.7074  163.8102  129.5484 C   0  0  0  0  0  0  0  0  0  0  0  0
  150.1012  166.2327  129.0750 C   0  0  1  0  0  0  0  0  0  0  0  0
  149.6276  166.5784  130.4284 C   0  0  2  0  0  0  0  0  0  0  0  0
  149.3476  168.0878  130.4537 C   0  0  0  0  0  0  0  0  0  0  0  0
  150.8422  166.3822  131.3296 C   0  0  2  0  0  0  0  0  0  0  0  0
  150.4597  165.8780  132.6813 C   0  0  0  0  0  0  0  0  0  0  0  0
  151.7375  165.6249  133.4586 C   0  0  0  0  0  0  0  0  0  0  0  0
  152.4229  166.9598  133.6329 C   0  0  2  0  0  0  0  0  0  0  0  0
  152.2910  167.4296  135.0652 C   0  0  0  0  0  0  0  0  0  0  0  0
  151.7727  167.9706  132.7327 C   0  0  0  0  0  0  0  0  0  0  0  0
  151.5969  167.5258  131.4345 O   0  0  0  0  0  0  0  0  0  0  0  0
  151.6012  165.4480  130.6076 O   0  0  0  0  0  0  0  0  0  0  0  0
  1  2  1  6
  3  2  1  1
  3  4  1  0
  4  5  1  6
  5  6  1  0
  7  6  1  6
  7  8  1  0
  8  9  1  0
  9 10  1  1
  9 11  1  0
 11 12  1  0
 12 13  1  0
 13 14  1  1
 13 15  1  0
 15 16  1  1
 16 17  1  0
 17 18  1  0
 18 19  1  1
 18 20  1  0
 20 21  1  0
 21 22  1  6
 21 23  1  0
 23 24  1  1
 24 25  1  0
 25 26  1  0
 26 27  1  1
 26 28  1  0
 28 29  1  0
 23 30  1  0
 20  1  1  1
 29 23  1  0
 30  1  1  0
 18  3  1  0
 15  4  1  0
 13  7  1  0
M  END
$$$$
