
     RDKit          3D

 30 35  0  0  0  0  0  0  0  0999 V2000
  128.6015  139.9623  135.0308 C   0  0  1  0  0  0  0  0  0  0  0  0
  129.4889  139.0073  134.2448 C   0  0  0  0  0  0  0  0  0  0  0  0
  130.2608  139.8968  133.3775 C   0  0  1  0  0  0  0  0  0  0  0  0
  130.7960  139.3738  132.1100 C   0  0  2  0  0  0  0  0  0  0  0  0
  131.5633  138.1094  132.3515 C   0  0  0  0  0  0  0  0  0  0  0  0
  132.8224  138.0863  131.5617 C   0  0  0  0  0  0  0  0  0  0  0  0
  132.6577  138.7068  130.1674 C   0  0  2  0  0  0  0  0  0  0  0  0
  133.9517  138.4810  129.4639 C   0  0  0  0  0  0  0  0  0  0  0  0
  134.1931  139.3352  128.2730 C   0  0  1  0  0  0  0  0  0  0  0  0
  133.6069  138.7692  127.1320 O   0  0  0  0  0  0  0  0  0  0  0  0
  133.8144  140.7781  128.4592 C   0  0  0  0  0  0  0  0  0  0  0  0
  133.4924  140.9794  129.9415 C   0  0  0  0  0  0  0  0  0  0  0  0
  132.2597  140.1638  130.2609 C   0  0  1  0  0  0  0  0  0  0  0  0
  131.2268  140.4676  129.2229 C   0  0  0  0  0  0  0  0  0  0  0  0
  131.8086  140.4388  131.6587 C   0  0  1  0  0  0  0  0  0  0  0  0
  131.3459  141.8175  131.9255 C   0  0  0  0  0  0  0  0  0  0  0  0
  129.9209  142.0197  132.2379 C   0  0  0  0  0  0  0  0  0  0  0  0
  129.2332  140.9837  133.0252 C   0  0  1  0  0  0  0  0  0  0  0  0
  128.0968  140.3842  132.2290 C   0  0  0  0  0  0  0  0  0  0  0  0
  128.8357  141.3496  134.4129 C   0  0  1  0  0  0  0  0  0  0  0  0
  127.5228  142.0023  134.5733 C   0  0  2  0  0  0  0  0  0  0  0  0
  127.6590  143.0598  135.6781 C   0  0  0  0  0  0  0  0  0  0  0  0
  126.6193  140.9238  135.1618 C   0  0  2  0  0  0  0  0  0  0  0  0
  125.2165  141.0374  134.6649 C   0  0  0  0  0  0  0  0  0  0  0  0
  124.4306  139.8688  135.2285 C   0  0  0  0  0  0  0  0  0  0  0  0
  124.4104  140.0304  136.7304 C   0  0  2  0  0  0  0  0  0  0  0  0
  123.0366  140.4686  137.1884 C   0  0  0  0  0  0  0  0  0  0  0  0
  125.4081  141.0800  137.1281 C   0  0  0  0  0  0  0  0  0  0  0  0
  126.6481  140.9197  136.5357 O   0  0  0  0  0  0  0  0  0  0  0  0
  127.2436  139.7434  134.7294 O   0  0  0  0  0  0  0  0  0  0  0  0
  1  2  1  6
  3  2  1  6
  3  4  1  0
  4  5  1  1
  5  6  1  0
  7  6  1  1
  7  8  1  0
  8  9  1  0
  9 10  1  6
  9 11  1  0
 11 12  1  0
 12 13  1  0
 13 14  1  6
 13 15  1  0
 15 16  1  6
 16 17  1  0
 17 18  1  0
 18 19  1  6
 18 20  1  0
 20 21  1  0
 21 22  1  1
 21 23  1  0
 23 24  1  1
 24 25  1  0
 25 26  1  0
 26 27  1  6
 26 28  1  0
 28 29  1  0
 23 30  1  0
 20  1  1  1
 29 23  1  0
 30  1  1  0
 18  3  1  0
 15  4  1  0
 13  7  1  0
M  END
$$$$
