
     RDKit          3D

 30 35  0  0  0  0  0  0  0  0999 V2000
  202.0253  130.5482  131.8182 C   0  0  1  0  0  0  0  0  0  0  0  0
  203.5112  130.7264  132.0973 C   0  0  0  0  0  0  0  0  0  0  0  0
  203.5337  131.5704  133.2917 C   0  0  1  0  0  0  0  0  0  0  0  0
  204.7103  132.4167  133.5482 C   0  0  2  0  0  0  0  0  0  0  0  0
  205.9641  131.5985  133.4815 C   0  0  0  0  0  0  0  0  0  0  0  0
  206.8993  131.9589  134.5794 C   0  0  0  0  0  0  0  0  0  0  0  0
  206.9021  133.4632  134.8844 C   0  0  2  0  0  0  0  0  0  0  0  0
  207.9772  133.6737  135.8944 C   0  0  0  0  0  0  0  0  0  0  0  0
  207.9072  134.9500  136.6507 C   0  0  1  0  0  0  0  0  0  0  0  0
  208.5347  135.9818  135.9382 O   0  0  0  0  0  0  0  0  0  0  0  0
  206.5246  135.3240  137.1073 C   0  0  0  0  0  0  0  0  0  0  0  0
  205.6132  134.1248  136.8372 C   0  0  0  0  0  0  0  0  0  0  0  0
  205.5368  133.9313  135.3394 C   0  0  1  0  0  0  0  0  0  0  0  0
  205.2310  135.2578  134.7203 C   0  0  0  0  0  0  0  0  0  0  0  0
  204.5410  132.8676  135.0081 C   0  0  1  0  0  0  0  0  0  0  0  0
  203.1360  133.1721  135.3535 C   0  0  0  0  0  0  0  0  0  0  0  0
  202.1759  133.3474  134.2505 C   0  0  0  0  0  0  0  0  0  0  0  0
  202.3401  132.5083  133.0525 C   0  0  1  0  0  0  0  0  0  0  0  0
  202.5932  133.3696  131.8365 C   0  0  0  0  0  0  0  0  0  0  0  0
  201.3028  131.4664  132.8163 C   0  0  1  0  0  0  0  0  0  0  0  0
  200.1054  131.8854  132.0639 C   0  0  2  0  0  0  0  0  0  0  0  0
  198.8952  131.1617  132.6715 C   0  0  0  0  0  0  0  0  0  0  0  0
  200.2813  131.2749  130.6775 C   0  0  2  0  0  0  0  0  0  0  0  0
  199.7293  132.1543  129.6053 C   0  0  0  0  0  0  0  0  0  0  0  0
  200.0415  131.5063  128.2698 C   0  0  0  0  0  0  0  0  0  0  0  0
  199.2962  130.1928  128.2287 C   0  0  2  0  0  0  0  0  0  0  0  0
  198.1168  130.2928  127.2862 C   0  0  0  0  0  0  0  0  0  0  0  0
  198.7875  129.8699  129.6042 C   0  0  0  0  0  0  0  0  0  0  0  0
  199.7407  130.0141  130.5965 O   0  0  0  0  0  0  0  0  0  0  0  0
  201.6751  131.1361  130.5876 O   0  0  0  0  0  0  0  0  0  0  0  0
  1  2  1  1
  3  2  1  6
  3  4  1  0
  4  5  1  1
  5  6  1  0
  7  6  1  1
  7  8  1  0
  8  9  1  0
  9 10  1  6
  9 11  1  0
 11 12  1  0
 12 13  1  0
 13 14  1  6
 13 15  1  0
 15 16  1  6
 16 17  1  0
 17 18  1  0
 18 19  1  6
 18 20  1  0
 20 21  1  0
 21 22  1  1
 21 23  1  0
 23 24  1  6
 24 25  1  0
 25 26  1  0
 26 27  1  6
 26 28  1  0
 28 29  1  0
 23 30  1  0
 20  1  1  6
 29 23  1  0
 30  1  1  0
 18  3  1  0
 15  4  1  0
 13  7  1  0
M  END
$$$$
