
     RDKit          3D

 30 35  0  0  0  0  0  0  0  0999 V2000
  128.1145  148.6356  133.3763 C   0  0  1  0  0  0  0  0  0  0  0  0
  128.9241  147.4398  132.8946 C   0  0  0  0  0  0  0  0  0  0  0  0
  128.2398  146.2991  133.5027 C   0  0  1  0  0  0  0  0  0  0  0  0
  128.9959  145.0616  133.7544 C   0  0  2  0  0  0  0  0  0  0  0  0
  129.7050  144.6228  132.5093 C   0  0  0  0  0  0  0  0  0  0  0  0
  129.5941  143.1528  132.3180 C   0  0  0  0  0  0  0  0  0  0  0  0
  129.6749  142.3765  133.6396 C   0  0  2  0  0  0  0  0  0  0  0  0
  129.6899  140.9340  133.2663 C   0  0  0  0  0  0  0  0  0  0  0  0
  129.3495  139.9846  134.3566 C   0  0  1  0  0  0  0  0  0  0  0  0
  130.4859  139.6797  135.1192 O   0  0  0  0  0  0  0  0  0  0  0  0
  128.1836  140.4092  135.2055 C   0  0  0  0  0  0  0  0  0  0  0  0
  127.5410  141.6213  134.5278 C   0  0  0  0  0  0  0  0  0  0  0  0
  128.5405  142.7555  134.5667 C   0  0  1  0  0  0  0  0  0  0  0  0
  129.0545  142.8663  135.9667 C   0  0  0  0  0  0  0  0  0  0  0  0
  127.9140  144.0112  134.0535 C   0  0  1  0  0  0  0  0  0  0  0  0
  126.8004  144.5514  134.8623 C   0  0  0  0  0  0  0  0  0  0  0  0
  127.0058  145.8382  135.5485 C   0  0  0  0  0  0  0  0  0  0  0  0
  127.8164  146.8613  134.8688 C   0  0  1  0  0  0  0  0  0  0  0  0
  129.0386  147.1981  135.6920 C   0  0  0  0  0  0  0  0  0  0  0  0
  127.0979  148.0709  134.3806 C   0  0  1  0  0  0  0  0  0  0  0  0
  126.9413  149.1786  135.3417 C   0  0  2  0  0  0  0  0  0  0  0  0
  125.5597  149.8067  135.1092 C   0  0  0  0  0  0  0  0  0  0  0  0
  127.9423  150.2355  134.8868 C   0  0  2  0  0  0  0  0  0  0  0  0
  128.5343  150.9773  136.0387 C   0  0  0  0  0  0  0  0  0  0  0  0
  129.5803  151.9277  135.4878 C   0  0  0  0  0  0  0  0  0  0  0  0
  128.8578  152.9231  134.6107 C   0  0  2  0  0  0  0  0  0  0  0  0
  128.7873  154.2686  135.2991 C   0  0  0  0  0  0  0  0  0  0  0  0
  127.4594  152.4369  134.3595 C   0  0  0  0  0  0  0  0  0  0  0  0
  127.3937  151.1085  133.9783 O   0  0  0  0  0  0  0  0  0  0  0  0
  128.8961  149.4671  134.2012 O   0  0  0  0  0  0  0  0  0  0  0  0
  1  2  1  1
  3  2  1  1
  3  4  1  0
  4  5  1  6
  5  6  1  0
  7  6  1  6
  7  8  1  0
  8  9  1  0
  9 10  1  1
  9 11  1  0
 11 12  1  0
 12 13  1  0
 13 14  1  1
 13 15  1  0
 15 16  1  1
 16 17  1  0
 17 18  1  0
 18 19  1  1
 18 20  1  0
 20 21  1  0
 21 22  1  6
 21 23  1  0
 23 24  1  1
 24 25  1  0
 25 26  1  0
 26 27  1  1
 26 28  1  0
 28 29  1  0
 23 30  1  0
 20  1  1  6
 29 23  1  0
 30  1  1  0
 18  3  1  0
 15  4  1  0
 13  7  1  0
M  END
$$$$
