
     RDKit          3D

 30 35  0  0  0  0  0  0  0  0999 V2000
  132.6194  170.4177  142.7049 C   0  0  1  0  0  0  0  0  0  0  0  0
  132.5519  169.0238  143.3133 C   0  0  0  0  0  0  0  0  0  0  0  0
  131.3396  169.0682  144.1303 C   0  0  1  0  0  0  0  0  0  0  0  0
  131.2217  168.1646  145.2862 C   0  0  2  0  0  0  0  0  0  0  0  0
  131.5035  166.7519  144.8730 C   0  0  0  0  0  0  0  0  0  0  0  0
  130.5391  165.8077  145.4961 C   0  0  0  0  0  0  0  0  0  0  0  0
  130.1758  166.1974  146.9356 C   0  0  2  0  0  0  0  0  0  0  0  0
  129.3247  165.0907  147.4564 C   0  0  0  0  0  0  0  0  0  0  0  0
  128.5141  165.4145  148.6581 C   0  0  1  0  0  0  0  0  0  0  0  0
  129.2670  165.2299  149.8265 O   0  0  0  0  0  0  0  0  0  0  0  0
  127.8467  166.7607  148.6102 C   0  0  0  0  0  0  0  0  0  0  0  0
  128.0309  167.3130  147.1951 C   0  0  0  0  0  0  0  0  0  0  0  0
  129.5085  167.5548  146.9828 C   0  0  1  0  0  0  0  0  0  0  0  0
  130.0212  168.3235  148.1586 C   0  0  0  0  0  0  0  0  0  0  0  0
  129.7354  168.2356  145.6721 C   0  0  1  0  0  0  0  0  0  0  0  0
  129.1775  169.5995  145.5509 C   0  0  0  0  0  0  0  0  0  0  0  0
  130.1212  170.7239  145.4323 C   0  0  0  0  0  0  0  0  0  0  0  0
  131.3639  170.5051  144.6749 C   0  0  1  0  0  0  0  0  0  0  0  0
  132.5672  170.7004  145.5685 C   0  0  0  0  0  0  0  0  0  0  0  0
  131.4900  171.2171  143.3730 C   0  0  1  0  0  0  0  0  0  0  0  0
  132.0426  172.5838  143.4188 C   0  0  2  0  0  0  0  0  0  0  0  0
  131.2962  173.4244  142.3730 C   0  0  0  0  0  0  0  0  0  0  0  0
  133.4639  172.4489  142.8826 C   0  0  2  0  0  0  0  0  0  0  0  0
  134.4073  173.3884  143.5571 C   0  0  0  0  0  0  0  0  0  0  0  0
  135.7996  173.1062  143.0253 C   0  0  0  0  0  0  0  0  0  0  0  0
  135.7864  173.4337  141.5506 C   0  0  2  0  0  0  0  0  0  0  0  0
  136.5428  174.7192  141.2960 C   0  0  0  0  0  0  0  0  0  0  0  0
  134.3661  173.6127  141.0967 C   0  0  0  0  0  0  0  0  0  0  0  0
  133.5176  172.6045  141.5182 O   0  0  0  0  0  0  0  0  0  0  0  0
  133.7608  171.1054  143.1597 O   0  0  0  0  0  0  0  0  0  0  0  0
  1  2  1  1
  3  2  1  1
  3  4  1  0
  4  5  1  6
  5  6  1  0
  7  6  1  6
  7  8  1  0
  8  9  1  0
  9 10  1  1
  9 11  1  0
 11 12  1  0
 12 13  1  0
 13 14  1  1
 13 15  1  0
 15 16  1  1
 16 17  1  0
 17 18  1  0
 18 19  1  1
 18 20  1  0
 20 21  1  0
 21 22  1  6
 21 23  1  0
 23 24  1  1
 24 25  1  0
 25 26  1  0
 26 27  1  1
 26 28  1  0
 28 29  1  0
 23 30  1  0
 20  1  1  6
 29 23  1  0
 30  1  1  0
 18  3  1  0
 15  4  1  0
 13  7  1  0
M  END
$$$$
