
     RDKit          3D

 30 35  0  0  0  0  0  0  0  0999 V2000
  192.6588  164.2173  130.4135 C   0  0  1  0  0  0  0  0  0  0  0  0
  192.3293  163.8222  128.9808 C   0  0  0  0  0  0  0  0  0  0  0  0
  191.6283  162.5474  129.1326 C   0  0  1  0  0  0  0  0  0  0  0  0
  191.6434  161.5850  128.0190 C   0  0  2  0  0  0  0  0  0  0  0  0
  191.2124  162.2527  126.7485 C   0  0  0  0  0  0  0  0  0  0  0  0
  190.2895  161.3839  125.9718 C   0  0  0  0  0  0  0  0  0  0  0  0
  190.6734  159.8995  126.0435 C   0  0  2  0  0  0  0  0  0  0  0  0
  189.7487  159.1925  125.1133 C   0  0  0  0  0  0  0  0  0  0  0  0
  189.6377  157.7245  125.3102 C   0  0  1  0  0  0  0  0  0  0  0  0
  190.6580  157.0549  124.6199 O   0  0  0  0  0  0  0  0  0  0  0  0
  189.5403  157.2986  126.7486 C   0  0  0  0  0  0  0  0  0  0  0  0
  189.3549  158.5636  127.5893 C   0  0  0  0  0  0  0  0  0  0  0  0
  190.6166  159.3882  127.4667 C   0  0  1  0  0  0  0  0  0  0  0  0
  191.7814  158.4852  127.7205 C   0  0  0  0  0  0  0  0  0  0  0  0
  190.5541  160.5643  128.3863 C   0  0  1  0  0  0  0  0  0  0  0  0
  190.5281  160.2503  129.8309 C   0  0  0  0  0  0  0  0  0  0  0  0
  191.6921  160.6416  130.6439 C   0  0  0  0  0  0  0  0  0  0  0  0
  192.3785  161.8989  130.3066 C   0  0  1  0  0  0  0  0  0  0  0  0
  193.8139  161.6281  129.9184 C   0  0  0  0  0  0  0  0  0  0  0  0
  192.2450  163.0179  131.2802 C   0  0  1  0  0  0  0  0  0  0  0  0
  193.2275  163.0573  132.3795 C   0  0  2  0  0  0  0  0  0  0  0  0
  192.4975  163.5401  133.6410 C   0  0  0  0  0  0  0  0  0  0  0  0
  194.1807  164.1893  132.0116 C   0  0  2  0  0  0  0  0  0  0  0  0
  195.5813  163.9025  132.4405 C   0  0  0  0  0  0  0  0  0  0  0  0
  196.4581  165.0359  131.9431 C   0  0  0  0  0  0  0  0  0  0  0  0
  196.0007  166.2924  132.6461 C   0  0  2  0  0  0  0  0  0  0  0  0
  197.0118  166.6992  133.6956 C   0  0  0  0  0  0  0  0  0  0  0  0
  194.6851  166.0302  133.3209 C   0  0  0  0  0  0  0  0  0  0  0  0
  193.7601  165.3999  132.5077 O   0  0  0  0  0  0  0  0  0  0  0  0
  194.0521  164.2451  130.6150 O   0  0  0  0  0  0  0  0  0  0  0  0
  1  2  1  6
  3  2  1  6
  3  4  1  0
  4  5  1  6
  5  6  1  0
  7  6  1  1
  7  8  1  0
  8  9  1  0
  9 10  1  1
  9 11  1  0
 11 12  1  0
 12 13  1  0
 13 14  1  1
 13 15  1  0
 15 16  1  1
 16 17  1  0
 17 18  1  0
 18 19  1  6
 18 20  1  0
 20 21  1  0
 21 22  1  1
 21 23  1  0
 23 24  1  6
 24 25  1  0
 25 26  1  0
 26 27  1  1
 26 28  1  0
 28 29  1  0
 23 30  1  0
 20  1  1  6
 29 23  1  0
 30  1  1  0
 18  3  1  0
 15  4  1  0
 13  7  1  0
M  END
$$$$
