
     RDKit          3D

 30 35  0  0  0  0  0  0  0  0999 V2000
  134.5167  134.9941  133.6588 C   0  0  1  0  0  0  0  0  0  0  0  0
  134.9532  135.9875  132.5911 C   0  0  0  0  0  0  0  0  0  0  0  0
  133.9521  137.0497  132.6859 C   0  0  1  0  0  0  0  0  0  0  0  0
  133.6787  137.8834  131.5041 C   0  0  2  0  0  0  0  0  0  0  0  0
  134.9565  138.4385  130.9520 C   0  0  0  0  0  0  0  0  0  0  0  0
  134.8000  139.8659  130.5676 C   0  0  0  0  0  0  0  0  0  0  0  0
  133.4270  140.1653  129.9504 C   0  0  2  0  0  0  0  0  0  0  0  0
  133.4827  141.5838  129.4977 C   0  0  0  0  0  0  0  0  0  0  0  0
  132.1690  142.2311  129.2497 C   0  0  1  0  0  0  0  0  0  0  0  0
  131.7197  141.9555  127.9505 O   0  0  0  0  0  0  0  0  0  0  0  0
  131.1275  141.9376  130.2933 C   0  0  0  0  0  0  0  0  0  0  0  0
  131.8268  141.2178  131.4485 C   0  0  0  0  0  0  0  0  0  0  0  0
  132.3120  139.8814  130.9333 C   0  0  1  0  0  0  0  0  0  0  0  0
  131.1733  139.2232  130.2214 C   0  0  0  0  0  0  0  0  0  0  0  0
  132.8710  139.0692  132.0561 C   0  0  1  0  0  0  0  0  0  0  0  0
  131.9058  138.6668  133.1014 C   0  0  0  0  0  0  0  0  0  0  0  0
  131.5888  137.2347  133.2344 C   0  0  0  0  0  0  0  0  0  0  0  0
  132.6688  136.2636  132.9969 C   0  0  1  0  0  0  0  0  0  0  0  0
  132.3199  135.3607  131.8360 C   0  0  0  0  0  0  0  0  0  0  0  0
  133.1685  135.5132  134.1821 C   0  0  1  0  0  0  0  0  0  0  0  0
  132.4532  134.2700  134.5260 C   0  0  2  0  0  0  0  0  0  0  0  0
  132.4031  134.1685  136.0572 C   0  0  0  0  0  0  0  0  0  0  0  0
  133.3848  133.1473  134.0815 C   0  0  2  0  0  0  0  0  0  0  0  0
  132.6308  131.9635  133.5736 C   0  0  0  0  0  0  0  0  0  0  0  0
  133.6431  130.9525  133.0695 C   0  0  0  0  0  0  0  0  0  0  0  0
  134.4611  130.5115  134.2605 C   0  0  2  0  0  0  0  0  0  0  0  0
  134.0748  129.1058  134.6656 C   0  0  0  0  0  0  0  0  0  0  0  0
  134.1935  131.4357  135.4135 C   0  0  0  0  0  0  0  0  0  0  0  0
  134.2569  132.7761  135.0766 O   0  0  0  0  0  0  0  0  0  0  0  0
  134.1415  133.7685  133.0759 O   0  0  0  0  0  0  0  0  0  0  0  0
  1  2  1  6
  3  2  1  6
  3  4  1  0
  4  5  1  1
  5  6  1  0
  7  6  1  1
  7  8  1  0
  8  9  1  0
  9 10  1  6
  9 11  1  0
 11 12  1  0
 12 13  1  0
 13 14  1  6
 13 15  1  0
 15 16  1  1
 16 17  1  0
 17 18  1  0
 18 19  1  6
 18 20  1  0
 20 21  1  0
 21 22  1  1
 21 23  1  0
 23 24  1  6
 24 25  1  0
 25 26  1  0
 26 27  1  1
 26 28  1  0
 28 29  1  0
 23 30  1  0
 20  1  1  6
 29 23  1  0
 30  1  1  0
 18  3  1  0
 15  4  1  0
 13  7  1  0
M  END
$$$$
