
     RDKit          3D

 30 35  0  0  0  0  0  0  0  0999 V2000
  197.8538  165.1902  131.4085 C   0  0  1  0  0  0  0  0  0  0  0  0
  197.0480  163.9281  131.1341 C   0  0  0  0  0  0  0  0  0  0  0  0
  195.6831  164.4263  130.9664 C   0  0  1  0  0  0  0  0  0  0  0  0
  194.5529  163.5257  131.2457 C   0  0  2  0  0  0  0  0  0  0  0  0
  194.7178  162.2369  130.4990 C   0  0  0  0  0  0  0  0  0  0  0  0
  193.4306  161.7939  129.9018 C   0  0  0  0  0  0  0  0  0  0  0  0
  192.2270  162.0819  130.8098 C   0  0  2  0  0  0  0  0  0  0  0  0
  191.0507  161.4598  130.1391 C   0  0  0  0  0  0  0  0  0  0  0  0
  189.7220  161.9445  130.5926 C   0  0  1  0  0  0  0  0  0  0  0  0
  189.3004  161.2398  131.7290 O   0  0  0  0  0  0  0  0  0  0  0  0
  189.6356  163.4344  130.7742 C   0  0  0  0  0  0  0  0  0  0  0  0
  190.9196  164.0405  130.2040 C   0  0  0  0  0  0  0  0  0  0  0  0
  192.0731  163.5665  131.0593 C   0  0  1  0  0  0  0  0  0  0  0  0
  191.7082  163.7978  132.4910 C   0  0  0  0  0  0  0  0  0  0  0  0
  193.3366  164.2464  130.6419 C   0  0  1  0  0  0  0  0  0  0  0  0
  193.3780  165.7098  130.8489 C   0  0  0  0  0  0  0  0  0  0  0  0
  194.3213  166.2397  131.8481 C   0  0  0  0  0  0  0  0  0  0  0  0
  195.6223  165.5674  131.9939 C   0  0  1  0  0  0  0  0  0  0  0  0
  195.7760  165.0145  133.3922 C   0  0  0  0  0  0  0  0  0  0  0  0
  196.8219  166.3216  131.5361 C   0  0  1  0  0  0  0  0  0  0  0  0
  197.4495  167.2240  132.5196 C   0  0  2  0  0  0  0  0  0  0  0  0
  197.9331  168.4715  131.7666 C   0  0  0  0  0  0  0  0  0  0  0  0
  198.7205  166.5032  132.9564 C   0  0  2  0  0  0  0  0  0  0  0  0
  199.0378  166.7509  134.3936 C   0  0  0  0  0  0  0  0  0  0  0  0
  200.2538  165.9165  134.7487 C   0  0  0  0  0  0  0  0  0  0  0  0
  201.4051  166.4339  133.9186 C   0  0  2  0  0  0  0  0  0  0  0  0
  202.3653  167.2143  134.7893 C   0  0  0  0  0  0  0  0  0  0  0  0
  200.8737  167.3459  132.8504 C   0  0  0  0  0  0  0  0  0  0  0  0
  199.7943  166.8230  132.1607 O   0  0  0  0  0  0  0  0  0  0  0  0
  198.4024  165.1594  132.7050 O   0  0  0  0  0  0  0  0  0  0  0  0
  1  2  1  1
  3  2  1  1
  3  4  1  0
  4  5  1  6
  5  6  1  0
  7  6  1  6
  7  8  1  0
  8  9  1  0
  9 10  1  1
  9 11  1  0
 11 12  1  0
 12 13  1  0
 13 14  1  1
 13 15  1  0
 15 16  1  1
 16 17  1  0
 17 18  1  0
 18 19  1  1
 18 20  1  0
 20 21  1  0
 21 22  1  6
 21 23  1  0
 23 24  1  1
 24 25  1  0
 25 26  1  0
 26 27  1  1
 26 28  1  0
 28 29  1  0
 23 30  1  0
 20  1  1  1
 29 23  1  0
 30  1  1  0
 18  3  1  0
 15  4  1  0
 13  7  1  0
M  END
$$$$
