
     RDKit          3D

 30 35  0  0  0  0  0  0  0  0999 V2000
  187.8374  161.7410  138.7892 C   0  0  1  0  0  0  0  0  0  0  0  0
  187.6196  161.4316  140.2637 C   0  0  0  0  0  0  0  0  0  0  0  0
  186.4216  162.2008  140.5989 C   0  0  1  0  0  0  0  0  0  0  0  0
  186.2088  162.6235  141.9926 C   0  0  2  0  0  0  0  0  0  0  0  0
  186.3334  161.4504  142.9168 C   0  0  0  0  0  0  0  0  0  0  0  0
  185.2733  161.4728  143.9586 C   0  0  0  0  0  0  0  0  0  0  0  0
  184.9585  162.8917  144.4521 C   0  0  2  0  0  0  0  0  0  0  0  0
  183.9930  162.7292  145.5754 C   0  0  0  0  0  0  0  0  0  0  0  0
  183.2259  163.9464  145.9443 C   0  0  1  0  0  0  0  0  0  0  0  0
  183.9572  164.7386  146.8407 O   0  0  0  0  0  0  0  0  0  0  0  0
  182.7094  164.7318  144.7711 C   0  0  0  0  0  0  0  0  0  0  0  0
  182.9491  163.8906  143.5156 C   0  0  0  0  0  0  0  0  0  0  0  0
  184.4437  163.7609  143.3254 C   0  0  1  0  0  0  0  0  0  0  0  0
  185.0405  165.1277  143.4354 C   0  0  0  0  0  0  0  0  0  0  0  0
  184.7401  163.0761  142.0308 C   0  0  1  0  0  0  0  0  0  0  0  0
  184.3343  163.8050  140.8101 C   0  0  0  0  0  0  0  0  0  0  0  0
  185.3949  164.2983  139.9153 C   0  0  0  0  0  0  0  0  0  0  0  0
  186.6043  163.4744  139.7584 C   0  0  1  0  0  0  0  0  0  0  0  0
  187.8241  164.2341  140.2270 C   0  0  0  0  0  0  0  0  0  0  0  0
  186.8039  162.8215  138.4350 C   0  0  1  0  0  0  0  0  0  0  0  0
  187.5027  163.6145  137.4063 C   0  0  2  0  0  0  0  0  0  0  0  0
  186.8499  163.3016  136.0523 C   0  0  0  0  0  0  0  0  0  0  0  0
  188.8993  163.0071  137.3263 C   0  0  2  0  0  0  0  0  0  0  0  0
  189.9415  164.0374  137.0435 C   0  0  0  0  0  0  0  0  0  0  0  0
  191.2932  163.3501  137.0825 C   0  0  0  0  0  0  0  0  0  0  0  0
  191.3119  162.3432  135.9565 C   0  0  2  0  0  0  0  0  0  0  0  0
  192.2036  162.8317  134.8360 C   0  0  0  0  0  0  0  0  0  0  0  0
  189.9186  162.1719  135.4233 C   0  0  0  0  0  0  0  0  0  0  0  0
  188.9660  161.9857  136.4094 O   0  0  0  0  0  0  0  0  0  0  0  0
  189.0484  162.4339  138.5988 O   0  0  0  0  0  0  0  0  0  0  0  0
  1  2  1  1
  3  2  1  1
  3  4  1  0
  4  5  1  1
  5  6  1  0
  7  6  1  6
  7  8  1  0
  8  9  1  0
  9 10  1  6
  9 11  1  0
 11 12  1  0
 12 13  1  0
 13 14  1  6
 13 15  1  0
 15 16  1  6
 16 17  1  0
 17 18  1  0
 18 19  1  1
 18 20  1  0
 20 21  1  0
 21 22  1  6
 21 23  1  0
 23 24  1  6
 24 25  1  0
 25 26  1  0
 26 27  1  6
 26 28  1  0
 28 29  1  0
 23 30  1  0
 20  1  1  1
 29 23  1  0
 30  1  1  0
 18  3  1  0
 15  4  1  0
 13  7  1  0
M  END
$$$$
