
     RDKit          3D

 30 35  0  0  0  0  0  0  0  0999 V2000
  148.5926  168.0381  133.1651 C   0  0  1  0  0  0  0  0  0  0  0  0
  149.4756  167.1479  132.3017 C   0  0  0  0  0  0  0  0  0  0  0  0
  148.9753  167.3841  130.9477 C   0  0  1  0  0  0  0  0  0  0  0  0
  149.1556  166.3403  129.9257 C   0  0  2  0  0  0  0  0  0  0  0  0
  150.5901  165.9103  129.8686 C   0  0  0  0  0  0  0  0  0  0  0  0
  151.0467  165.7491  128.4632 C   0  0  0  0  0  0  0  0  0  0  0  0
  149.9626  165.1550  127.5533 C   0  0  2  0  0  0  0  0  0  0  0  0
  150.6153  164.9297  126.2329 C   0  0  0  0  0  0  0  0  0  0  0  0
  149.6930  164.7557  125.0817 C   0  0  1  0  0  0  0  0  0  0  0  0
  149.2815  163.4195  124.9759 O   0  0  0  0  0  0  0  0  0  0  0  0
  148.5375  165.7171  125.0636 C   0  0  0  0  0  0  0  0  0  0  0  0
  148.7938  166.7618  126.1518 C   0  0  0  0  0  0  0  0  0  0  0  0
  148.7488  166.0563  127.4886 C   0  0  1  0  0  0  0  0  0  0  0  0
  147.5061  165.2252  127.5272 C   0  0  0  0  0  0  0  0  0  0  0  0
  148.8430  167.0516  128.5992 C   0  0  1  0  0  0  0  0  0  0  0  0
  147.7137  167.9994  128.7106 C   0  0  0  0  0  0  0  0  0  0  0  0
  146.8435  167.9010  129.8947 C   0  0  0  0  0  0  0  0  0  0  0  0
  147.4641  167.5399  131.1794 C   0  0  1  0  0  0  0  0  0  0  0  0
  146.8833  166.2452  131.6999 C   0  0  0  0  0  0  0  0  0  0  0  0
  147.5233  168.6051  132.2184 C   0  0  1  0  0  0  0  0  0  0  0  0
  146.3468  168.7352  133.0983 C   0  0  2  0  0  0  0  0  0  0  0  0
  146.1327  170.2305  133.3734 C   0  0  0  0  0  0  0  0  0  0  0  0
  146.7887  168.1428  134.4323 C   0  0  2  0  0  0  0  0  0  0  0  0
  145.6716  167.4401  135.1293 C   0  0  0  0  0  0  0  0  0  0  0  0
  146.2367  166.8080  136.3871 C   0  0  0  0  0  0  0  0  0  0  0  0
  146.7093  167.9342  137.2762 C   0  0  2  0  0  0  0  0  0  0  0  0
  145.7636  168.1070  138.4445 C   0  0  0  0  0  0  0  0  0  0  0  0
  146.7360  169.2104  136.4853 C   0  0  0  0  0  0  0  0  0  0  0  0
  147.3549  169.0875  135.2541 O   0  0  0  0  0  0  0  0  0  0  0  0
  147.8112  167.2634  134.0437 O   0  0  0  0  0  0  0  0  0  0  0  0
  1  2  1  6
  3  2  1  1
  3  4  1  0
  4  5  1  6
  5  6  1  0
  7  6  1  1
  7  8  1  0
  8  9  1  0
  9 10  1  1
  9 11  1  0
 11 12  1  0
 12 13  1  0
 13 14  1  1
 13 15  1  0
 15 16  1  1
 16 17  1  0
 17 18  1  0
 18 19  1  1
 18 20  1  0
 20 21  1  0
 21 22  1  1
 21 23  1  0
 23 24  1  1
 24 25  1  0
 25 26  1  0
 26 27  1  1
 26 28  1  0
 28 29  1  0
 23 30  1  0
 20  1  1  1
 29 23  1  0
 30  1  1  0
 18  3  1  0
 15  4  1  0
 13  7  1  0
M  END
$$$$
