
     RDKit          3D

 30 35  0  0  0  0  0  0  0  0999 V2000
  166.3081  152.6780  125.9836 C   0  0  1  0  0  0  0  0  0  0  0  0
  166.9079  151.4231  126.6023 C   0  0  0  0  0  0  0  0  0  0  0  0
  165.7822  150.4898  126.6364 C   0  0  1  0  0  0  0  0  0  0  0  0
  165.7772  149.4104  127.6370 C   0  0  2  0  0  0  0  0  0  0  0  0
  167.0666  148.6483  127.5867 C   0  0  0  0  0  0  0  0  0  0  0  0
  166.8296  147.1846  127.6925 C   0  0  0  0  0  0  0  0  0  0  0  0
  165.6950  146.8378  128.6664 C   0  0  2  0  0  0  0  0  0  0  0  0
  165.6798  145.3510  128.7637 C   0  0  0  0  0  0  0  0  0  0  0  0
  164.4319  144.7555  129.3061 C   0  0  1  0  0  0  0  0  0  0  0  0
  164.4646  144.7310  130.7076 O   0  0  0  0  0  0  0  0  0  0  0  0
  163.1689  145.3702  128.7703 C   0  0  0  0  0  0  0  0  0  0  0  0
  163.5643  146.3033  127.6239 C   0  0  0  0  0  0  0  0  0  0  0  0
  164.3810  147.4333  128.2094 C   0  0  1  0  0  0  0  0  0  0  0  0
  163.6385  147.9721  129.3905 C   0  0  0  0  0  0  0  0  0  0  0  0
  164.6691  148.4575  127.1601 C   0  0  1  0  0  0  0  0  0  0  0  0
  163.4933  149.1725  126.6196 C   0  0  0  0  0  0  0  0  0  0  0  0
  163.3672  150.6114  126.9075 C   0  0  0  0  0  0  0  0  0  0  0  0
  164.5986  151.4158  126.9578 C   0  0  1  0  0  0  0  0  0  0  0  0
  164.7747  152.0248  128.3299 C   0  0  0  0  0  0  0  0  0  0  0  0
  164.8020  152.3999  125.8589 C   0  0  1  0  0  0  0  0  0  0  0  0
  164.2080  153.7362  126.0509 C   0  0  2  0  0  0  0  0  0  0  0  0
  163.6901  154.2172  124.6879 C   0  0  0  0  0  0  0  0  0  0  0  0
  165.3886  154.6461  126.3735 C   0  0  2  0  0  0  0  0  0  0  0  0
  165.0199  155.7166  127.3461 C   0  0  0  0  0  0  0  0  0  0  0  0
  166.2784  156.4981  127.6721 C   0  0  0  0  0  0  0  0  0  0  0  0
  166.7321  157.1626  126.3935 C   0  0  2  0  0  0  0  0  0  0  0  0
  166.4508  158.6481  126.4507 C   0  0  0  0  0  0  0  0  0  0  0  0
  165.9780  156.5739  125.2359 C   0  0  0  0  0  0  0  0  0  0  0  0
  165.9448  155.1908  125.2410 O   0  0  0  0  0  0  0  0  0  0  0  0
  166.3241  153.7440  126.9035 O   0  0  0  0  0  0  0  0  0  0  0  0
  1  2  1  1
  3  2  1  1
  3  4  1  0
  4  5  1  6
  5  6  1  0
  7  6  1  6
  7  8  1  0
  8  9  1  0
  9 10  1  1
  9 11  1  0
 11 12  1  0
 12 13  1  0
 13 14  1  1
 13 15  1  0
 15 16  1  1
 16 17  1  0
 17 18  1  0
 18 19  1  1
 18 20  1  0
 20 21  1  0
 21 22  1  6
 21 23  1  0
 23 24  1  1
 24 25  1  0
 25 26  1  0
 26 27  1  1
 26 28  1  0
 28 29  1  0
 23 30  1  0
 20  1  1  1
 29 23  1  0
 30  1  1  0
 18  3  1  0
 15  4  1  0
 13  7  1  0
M  END
$$$$
