
     RDKit          3D

 30 35  0  0  0  0  0  0  0  0999 V2000
  166.1214  153.0028  127.6023 C   0  0  1  0  0  0  0  0  0  0  0  0
  166.2441  151.7319  128.4312 C   0  0  0  0  0  0  0  0  0  0  0  0
  166.8492  150.7777  127.5024 C   0  0  1  0  0  0  0  0  0  0  0  0
  166.6214  149.3378  127.7059 C   0  0  2  0  0  0  0  0  0  0  0  0
  166.9526  148.9529  129.1159 C   0  0  0  0  0  0  0  0  0  0  0  0
  167.7008  147.6692  129.1603 C   0  0  0  0  0  0  0  0  0  0  0  0
  167.2054  146.6591  128.1161 C   0  0  2  0  0  0  0  0  0  0  0  0
  167.9506  145.3966  128.3826 C   0  0  0  0  0  0  0  0  0  0  0  0
  167.9612  144.4102  127.2722 C   0  0  1  0  0  0  0  0  0  0  0  0
  166.8137  143.6056  127.3151 O   0  0  0  0  0  0  0  0  0  0  0  0
  168.1930  145.0103  125.9134 C   0  0  0  0  0  0  0  0  0  0  0  0
  168.5820  146.4756  126.1201 C   0  0  0  0  0  0  0  0  0  0  0  0
  167.3881  147.1911  126.7112 C   0  0  1  0  0  0  0  0  0  0  0  0
  166.1904  146.8443  125.8855 C   0  0  0  0  0  0  0  0  0  0  0  0
  167.6575  148.6584  126.7958 C   0  0  1  0  0  0  0  0  0  0  0  0
  167.8288  149.3563  125.5036 C   0  0  0  0  0  0  0  0  0  0  0  0
  166.8064  150.3404  125.1092 C   0  0  0  0  0  0  0  0  0  0  0  0
  166.1923  151.1594  126.1666 C   0  0  1  0  0  0  0  0  0  0  0  0
  164.7033  150.9076  126.2304 C   0  0  0  0  0  0  0  0  0  0  0  0
  166.5336  152.6089  126.1754 C   0  0  1  0  0  0  0  0  0  0  0  0
  165.6956  153.4896  125.3404 C   0  0  2  0  0  0  0  0  0  0  0  0
  166.6081  154.5657  124.7349 C   0  0  0  0  0  0  0  0  0  0  0  0
  164.8033  154.2326  126.3291 C   0  0  2  0  0  0  0  0  0  0  0  0
  163.4446  154.4936  125.7690 C   0  0  0  0  0  0  0  0  0  0  0  0
  162.6127  155.1430  126.8586 C   0  0  0  0  0  0  0  0  0  0  0  0
  163.2538  156.4743  127.1728 C   0  0  2  0  0  0  0  0  0  0  0  0
  162.4122  157.6017  126.6161 C   0  0  0  0  0  0  0  0  0  0  0  0
  164.6138  156.5300  126.5384 C   0  0  0  0  0  0  0  0  0  0  0  0
  165.3795  155.4007  126.7673 O   0  0  0  0  0  0  0  0  0  0  0  0
  164.7691  153.3509  127.4206 O   0  0  0  0  0  0  0  0  0  0  0  0
  1  2  1  1
  3  2  1  1
  3  4  1  0
  4  5  1  1
  5  6  1  0
  7  6  1  1
  7  8  1  0
  8  9  1  0
  9 10  1  6
  9 11  1  0
 11 12  1  0
 12 13  1  0
 13 14  1  6
 13 15  1  0
 15 16  1  6
 16 17  1  0
 17 18  1  0
 18 19  1  1
 18 20  1  0
 20 21  1  0
 21 22  1  1
 21 23  1  0
 23 24  1  6
 24 25  1  0
 25 26  1  0
 26 27  1  6
 26 28  1  0
 28 29  1  0
 23 30  1  0
 20  1  1  1
 29 23  1  0
 30  1  1  0
 18  3  1  0
 15  4  1  0
 13  7  1  0
M  END
$$$$
