
     RDKit          3D

 30 35  0  0  0  0  0  0  0  0999 V2000
  203.2670  131.4870  135.6436 C   0  0  1  0  0  0  0  0  0  0  0  0
  203.9130  130.7200  134.4983 C   0  0  0  0  0  0  0  0  0  0  0  0
  205.3218  131.1035  134.5845 C   0  0  1  0  0  0  0  0  0  0  0  0
  206.1550  131.0456  133.3725 C   0  0  2  0  0  0  0  0  0  0  0  0
  206.0343  129.7011  132.7218 C   0  0  0  0  0  0  0  0  0  0  0  0
  207.3588  129.2052  132.2641 C   0  0  0  0  0  0  0  0  0  0  0  0
  208.2483  130.3240  131.7046 C   0  0  2  0  0  0  0  0  0  0  0  0
  209.4641  129.6501  131.1680 C   0  0  0  0  0  0  0  0  0  0  0  0
  210.6431  130.5276  130.9533 C   0  0  1  0  0  0  0  0  0  0  0  0
  210.5749  131.1485  129.6980 O   0  0  0  0  0  0  0  0  0  0  0  0
  210.8977  131.5056  132.0663 C   0  0  0  0  0  0  0  0  0  0  0  0
  209.9655  131.1367  133.2223 C   0  0  0  0  0  0  0  0  0  0  0  0
  208.5441  131.3670  132.7604 C   0  0  1  0  0  0  0  0  0  0  0  0
  208.4753  132.7304  132.1497 C   0  0  0  0  0  0  0  0  0  0  0  0
  207.5950  131.1671  133.8971 C   0  0  1  0  0  0  0  0  0  0  0  0
  207.7177  132.1282  135.0139 C   0  0  0  0  0  0  0  0  0  0  0  0
  206.6036  133.0629  135.2466 C   0  0  0  0  0  0  0  0  0  0  0  0
  205.2346  132.5780  135.0086 C   0  0  1  0  0  0  0  0  0  0  0  0
  204.5687  133.3912  133.9223 C   0  0  0  0  0  0  0  0  0  0  0  0
  204.3693  132.3973  136.2070 C   0  0  1  0  0  0  0  0  0  0  0  0
  203.6136  133.5800  136.6602 C   0  0  2  0  0  0  0  0  0  0  0  0
  203.5880  133.5577  138.1952 C   0  0  0  0  0  0  0  0  0  0  0  0
  202.1745  133.3120  136.2326 C   0  0  2  0  0  0  0  0  0  0  0  0
  201.4669  134.5646  135.8352 C   0  0  0  0  0  0  0  0  0  0  0  0
  200.0872  134.1777  135.3373 C   0  0  0  0  0  0  0  0  0  0  0  0
  199.3470  133.5720  136.5066 C   0  0  2  0  0  0  0  0  0  0  0  0
  198.2957  134.5354  137.0127 C   0  0  0  0  0  0  0  0  0  0  0  0
  200.3193  133.2936  137.6166 C   0  0  0  0  0  0  0  0  0  0  0  0
  201.4655  132.6406  137.1996 O   0  0  0  0  0  0  0  0  0  0  0  0
  202.3435  132.4303  135.1536 O   0  0  0  0  0  0  0  0  0  0  0  0
  1  2  1  6
  3  2  1  6
  3  4  1  0
  4  5  1  1
  5  6  1  0
  7  6  1  1
  7  8  1  0
  8  9  1  0
  9 10  1  6
  9 11  1  0
 11 12  1  0
 12 13  1  0
 13 14  1  6
 13 15  1  0
 15 16  1  1
 16 17  1  0
 17 18  1  0
 18 19  1  6
 18 20  1  0
 20 21  1  0
 21 22  1  1
 21 23  1  0
 23 24  1  6
 24 25  1  0
 25 26  1  0
 26 27  1  1
 26 28  1  0
 28 29  1  0
 23 30  1  0
 20  1  1  6
 29 23  1  0
 30  1  1  0
 18  3  1  0
 15  4  1  0
 13  7  1  0
M  END
$$$$
