
     RDKit          3D

 30 35  0  0  0  0  0  0  0  0999 V2000
  176.0281  163.1427  114.7504 C   0  0  1  0  0  0  0  0  0  0  0  0
  176.0591  162.7332  113.2845 C   0  0  0  0  0  0  0  0  0  0  0  0
  174.9876  163.5294  112.6866 C   0  0  1  0  0  0  0  0  0  0  0  0
  174.3284  163.0401  111.4650 C   0  0  2  0  0  0  0  0  0  0  0  0
  175.3502  162.7008  110.4226 C   0  0  0  0  0  0  0  0  0  0  0  0
  174.9261  163.1770  109.0799 C   0  0  0  0  0  0  0  0  0  0  0  0
  173.4167  163.0233  108.8472 C   0  0  2  0  0  0  0  0  0  0  0  0
  173.1806  163.4079  107.4271 C   0  0  0  0  0  0  0  0  0  0  0  0
  171.7760  163.7400  107.0764 C   0  0  1  0  0  0  0  0  0  0  0  0
  171.0578  162.5781  106.7599 O   0  0  0  0  0  0  0  0  0  0  0  0
  171.0700  164.5945  108.0920 C   0  0  0  0  0  0  0  0  0  0  0  0
  172.1175  165.0626  109.1044 C   0  0  0  0  0  0  0  0  0  0  0  0
  172.6238  163.8432  109.8417 C   0  0  1  0  0  0  0  0  0  0  0  0
  171.4362  163.0594  110.3020 C   0  0  0  0  0  0  0  0  0  0  0  0
  173.5402  164.2545  110.9480 C   0  0  1  0  0  0  0  0  0  0  0  0
  172.9215  165.0406  112.0368 C   0  0  0  0  0  0  0  0  0  0  0  0
  172.8291  164.4210  113.3697 C   0  0  0  0  0  0  0  0  0  0  0  0
  173.9299  163.5446  113.8013 C   0  0  1  0  0  0  0  0  0  0  0  0
  173.4209  162.1437  114.0521 C   0  0  0  0  0  0  0  0  0  0  0  0
  174.7969  164.0495  114.9018 C   0  0  1  0  0  0  0  0  0  0  0  0
  174.3504  163.7637  116.2781 C   0  0  2  0  0  0  0  0  0  0  0  0
  174.6933  164.9849  117.1433 C   0  0  0  0  0  0  0  0  0  0  0  0
  175.2763  162.6550  116.7672 C   0  0  2  0  0  0  0  0  0  0  0  0
  174.5746  161.7009  117.6756 C   0  0  0  0  0  0  0  0  0  0  0  0
  175.5493  160.5916  118.0226 C   0  0  0  0  0  0  0  0  0  0  0  0
  176.6849  161.2234  118.7931 C   0  0  2  0  0  0  0  0  0  0  0  0
  176.5899  160.8535  120.2571 C   0  0  0  0  0  0  0  0  0  0  0  0
  176.5969  162.7172  118.6671 C   0  0  0  0  0  0  0  0  0  0  0  0
  176.4066  163.1543  117.3683 O   0  0  0  0  0  0  0  0  0  0  0  0
  175.6770  162.0498  115.5659 O   0  0  0  0  0  0  0  0  0  0  0  0
  1  2  1  6
  3  2  1  1
  3  4  1  0
  4  5  1  6
  5  6  1  0
  7  6  1  1
  7  8  1  0
  8  9  1  0
  9 10  1  1
  9 11  1  0
 11 12  1  0
 12 13  1  0
 13 14  1  1
 13 15  1  0
 15 16  1  1
 16 17  1  0
 17 18  1  0
 18 19  1  1
 18 20  1  0
 20 21  1  0
 21 22  1  1
 21 23  1  0
 23 24  1  1
 24 25  1  0
 25 26  1  0
 26 27  1  1
 26 28  1  0
 28 29  1  0
 23 30  1  0
 20  1  1  6
 29 23  1  0
 30  1  1  0
 18  3  1  0
 15  4  1  0
 13  7  1  0
M  END
$$$$
