
     RDKit          3D

 30 35  0  0  0  0  0  0  0  0999 V2000
  129.9863  143.9592  134.1405 C   0  0  1  0  0  0  0  0  0  0  0  0
  130.6256  142.5908  134.3309 C   0  0  0  0  0  0  0  0  0  0  0  0
  130.3414  141.9048  133.0707 C   0  0  1  0  0  0  0  0  0  0  0  0
  130.2813  140.4342  133.0537 C   0  0  2  0  0  0  0  0  0  0  0  0
  131.5143  139.8559  133.6793 C   0  0  0  0  0  0  0  0  0  0  0  0
  132.0199  138.6971  132.8975 C   0  0  0  0  0  0  0  0  0  0  0  0
  130.8893  137.8287  132.3284 C   0  0  2  0  0  0  0  0  0  0  0  0
  131.5538  136.6512  131.7022 C   0  0  0  0  0  0  0  0  0  0  0  0
  130.7263  135.8857  130.7350 C   0  0  1  0  0  0  0  0  0  0  0  0
  129.9359  134.9388  131.4019 O   0  0  0  0  0  0  0  0  0  0  0  0
  129.9271  136.7406  129.7915 C   0  0  0  0  0  0  0  0  0  0  0  0
  130.3956  138.1858  129.9744 C   0  0  0  0  0  0  0  0  0  0  0  0
  130.0206  138.6188  131.3740 C   0  0  1  0  0  0  0  0  0  0  0  0
  128.5846  138.2642  131.5946 C   0  0  0  0  0  0  0  0  0  0  0  0
  130.3183  140.0712  131.5604 C   0  0  1  0  0  0  0  0  0  0  0  0
  129.5286  141.0018  130.7258 C   0  0  0  0  0  0  0  0  0  0  0  0
  128.5706  141.8929  131.4020 C   0  0  0  0  0  0  0  0  0  0  0  0
  128.9366  142.4231  132.7252 C   0  0  1  0  0  0  0  0  0  0  0  0
  127.9440  141.9657  133.7692 C   0  0  0  0  0  0  0  0  0  0  0  0
  129.2288  143.8811  132.8060 C   0  0  1  0  0  0  0  0  0  0  0  0
  128.0770  144.7737  133.0337 C   0  0  2  0  0  0  0  0  0  0  0  0
  128.3083  146.0524  132.2159 C   0  0  0  0  0  0  0  0  0  0  0  0
  128.1983  145.2044  134.4916 C   0  0  2  0  0  0  0  0  0  0  0  0
  126.8634  145.3742  135.1373 C   0  0  0  0  0  0  0  0  0  0  0  0
  127.0961  145.7040  136.5995 C   0  0  0  0  0  0  0  0  0  0  0  0
  127.8119  147.0335  136.6464 C   0  0  2  0  0  0  0  0  0  0  0  0
  126.8668  148.1173  137.1170 C   0  0  0  0  0  0  0  0  0  0  0  0
  128.2970  147.3825  135.2687 C   0  0  0  0  0  0  0  0  0  0  0  0
  128.9531  146.3442  134.6318 O   0  0  0  0  0  0  0  0  0  0  0  0
  128.9319  144.1483  135.0543 O   0  0  0  0  0  0  0  0  0  0  0  0
  1  2  1  1
  3  2  1  1
  3  4  1  0
  4  5  1  1
  5  6  1  0
  7  6  1  6
  7  8  1  0
  8  9  1  0
  9 10  1  1
  9 11  1  0
 11 12  1  0
 12 13  1  0
 13 14  1  1
 13 15  1  0
 15 16  1  6
 16 17  1  0
 17 18  1  0
 18 19  1  1
 18 20  1  0
 20 21  1  0
 21 22  1  6
 21 23  1  0
 23 24  1  1
 24 25  1  0
 25 26  1  0
 26 27  1  6
 26 28  1  0
 28 29  1  0
 23 30  1  0
 20  1  1  1
 29 23  1  0
 30  1  1  0
 18  3  1  0
 15  4  1  0
 13  7  1  0
M  END
$$$$
