
     RDKit          3D

 32 36  0  0  0  0  0  0  0  0999 V2000
  201.1983  139.4802  131.8949 C   0  0  1  0  0  0  0  0  0  0  0  0
  200.5190  140.4839  132.7291 C   0  0  1  0  0  0  0  0  0  0  0  0
  200.8880  141.8053  132.0935 C   0  0  0  0  0  0  0  0  0  0  0  0
  201.3768  141.4355  130.6883 C   0  0  0  0  0  0  0  0  0  0  0  0
  202.1906  140.2267  131.0461 C   0  0  1  0  0  0  0  0  0  0  0  0
  203.4530  140.6699  131.6620 C   0  0  0  0  0  0  0  0  0  0  0  0
  203.6753  142.0115  131.2115 O   0  0  0  0  0  0  0  0  0  0  0  0
  202.4261  139.2883  129.8642 C   0  0  0  0  0  0  0  0  0  0  0  0
  203.0480  138.0294  130.4032 C   0  0  0  0  0  0  0  0  0  0  0  0
  202.2179  137.3159  131.4408 C   0  0  2  0  0  0  0  0  0  0  0  0
  201.0717  136.7034  130.6972 C   0  0  0  0  0  0  0  0  0  0  0  0
  201.8633  138.3129  132.5045 C   0  0  2  0  0  0  0  0  0  0  0  0
  201.2177  137.7118  133.7061 C   0  0  0  0  0  0  0  0  0  0  0  0
  202.3179  136.7821  134.2806 C   0  0  0  0  0  0  0  0  0  0  0  0
  202.3706  135.6668  133.2584 C   0  0  2  0  0  0  0  0  0  0  0  0
  202.9026  134.3893  133.8466 C   0  0  1  0  0  0  0  0  0  0  0  0
  204.0786  134.5813  134.7125 C   0  0  0  0  0  0  0  0  0  0  0  0
  201.7741  133.8360  134.7402 C   0  0  0  0  0  0  0  0  0  0  0  0
  202.1177  132.5398  135.3569 C   0  0  0  0  0  0  0  0  0  0  0  0
  203.0580  131.6538  134.6196 C   0  0  2  0  0  0  0  0  0  0  0  0
  204.2623  131.4588  135.3431 O   0  0  0  0  0  0  0  0  0  0  0  0
  203.2831  131.9691  133.1884 C   0  0  0  0  0  0  0  0  0  0  0  0
  204.7121  131.5206  132.8327 C   0  0  0  0  0  0  0  0  0  0  0  0
  202.4266  131.0174  132.3212 C   0  0  0  0  0  0  0  0  0  0  0  0
  202.9997  133.3554  132.7597 C   0  0  2  0  0  0  0  0  0  0  0  0
  203.8519  133.8594  131.6167 C   0  0  0  0  0  0  0  0  0  0  0  0
  203.0640  135.0194  130.9940 C   0  0  0  0  0  0  0  0  0  0  0  0
  203.0302  136.1570  132.0221 C   0  0  1  0  0  0  0  0  0  0  0  0
  204.4320  136.6169  132.1820 C   0  0  0  0  0  0  0  0  0  0  0  0
  199.0399  140.2979  132.5811 C   0  0  0  0  0  0  0  0  0  0  0  0
  198.4685  139.4398  131.4935 C   0  0  0  0  0  0  0  0  0  0  0  0
  198.1882  140.8519  133.3884 C   0  0  0  0  0  0  0  0  0  0  0  0
  1  2  1  1
  2  3  1  0
  3  4  1  0
  4  5  1  0
  5  6  1  1
  6  7  1  0
  5  8  1  0
  8  9  1  0
  9 10  1  0
 10 11  1  6
 10 12  1  0
 12 13  1  1
 13 14  1  0
 15 14  1  1
 15 16  1  0
 16 17  1  1
 16 18  1  0
 18 19  1  0
 19 20  1  0
 20 21  1  1
 20 22  1  0
 22 23  1  0
 22 24  1  0
 22 25  1  0
 25 26  1  6
 26 27  1  0
 27 28  1  0
 28 29  1  1
  2 30  1  6
 30 31  1  0
 30 32  2  0
  5  1  1  0
 28 10  1  0
 12  1  1  0
 28 15  1  0
 25 16  1  0
M  END
$$$$
