
     RDKit          3D

 32 36  0  0  0  0  0  0  0  0999 V2000
  184.4447  160.7710  135.0321 C   0  0  1  0  0  0  0  0  0  0  0  0
  183.4119  161.2741  134.1127 C   0  0  1  0  0  0  0  0  0  0  0  0
  183.7911  160.6868  132.7720 C   0  0  0  0  0  0  0  0  0  0  0  0
  184.7453  159.5355  133.1100 C   0  0  0  0  0  0  0  0  0  0  0  0
  185.5510  160.2189  134.1756 C   0  0  1  0  0  0  0  0  0  0  0  0
  186.4834  161.1615  133.5341 C   0  0  0  0  0  0  0  0  0  0  0  0
  187.1632  160.4261  132.5097 O   0  0  0  0  0  0  0  0  0  0  0  0
  186.2693  159.2434  135.1058 C   0  0  0  0  0  0  0  0  0  0  0  0
  186.8435  160.0426  136.2431 C   0  0  0  0  0  0  0  0  0  0  0  0
  185.8251  160.8215  137.0376 C   0  0  2  0  0  0  0  0  0  0  0  0
  185.0642  159.8069  137.8335 C   0  0  0  0  0  0  0  0  0  0  0  0
  185.0251  161.6435  136.0704 C   0  0  2  0  0  0  0  0  0  0  0  0
  184.1134  162.6266  136.7216 C   0  0  0  0  0  0  0  0  0  0  0  0
  185.0831  163.5834  137.4626 C   0  0  0  0  0  0  0  0  0  0  0  0
  185.6016  162.7157  138.5894 C   0  0  2  0  0  0  0  0  0  0  0  0
  186.0780  163.5350  139.7569 C   0  0  1  0  0  0  0  0  0  0  0  0
  186.8820  164.7064  139.3686 C   0  0  0  0  0  0  0  0  0  0  0  0
  184.8047  164.0725  140.4408 C   0  0  0  0  0  0  0  0  0  0  0  0
  185.0976  164.8616  141.6533 C   0  0  0  0  0  0  0  0  0  0  0  0
  186.3295  164.5224  142.4151 C   0  0  2  0  0  0  0  0  0  0  0  0
  187.2550  165.5972  142.4098 O   0  0  0  0  0  0  0  0  0  0  0  0
  186.9561  163.2126  142.1149 C   0  0  0  0  0  0  0  0  0  0  0  0
  188.4691  163.3539  142.3610 C   0  0  0  0  0  0  0  0  0  0  0  0
  186.5503  162.1967  143.2078 C   0  0  0  0  0  0  0  0  0  0  0  0
  186.6483  162.6135  140.7988 C   0  0  2  0  0  0  0  0  0  0  0  0
  187.7480  161.7576  140.2116 C   0  0  0  0  0  0  0  0  0  0  0  0
  187.0572  160.8349  139.1989 C   0  0  0  0  0  0  0  0  0  0  0  0
  186.5517  161.7124  138.0470 C   0  0  1  0  0  0  0  0  0  0  0  0
  187.7582  162.2650  137.3828 C   0  0  0  0  0  0  0  0  0  0  0  0
  182.0939  160.6881  134.5171 C   0  0  0  0  0  0  0  0  0  0  0  0
  181.0241  161.5338  135.1385 C   0  0  0  0  0  0  0  0  0  0  0  0
  181.8091  159.4350  134.3373 C   0  0  0  0  0  0  0  0  0  0  0  0
  1  2  1  6
  2  3  1  0
  3  4  1  0
  4  5  1  0
  5  6  1  6
  6  7  1  0
  5  8  1  0
  8  9  1  0
  9 10  1  0
 10 11  1  1
 10 12  1  0
 12 13  1  1
 13 14  1  0
 15 14  1  6
 15 16  1  0
 16 17  1  6
 16 18  1  0
 18 19  1  0
 19 20  1  0
 20 21  1  6
 20 22  1  0
 22 23  1  0
 22 24  1  0
 22 25  1  0
 25 26  1  6
 26 27  1  0
 27 28  1  0
 28 29  1  6
  2 30  1  1
 30 31  1  0
 30 32  2  0
  5  1  1  0
 28 10  1  0
 12  1  1  0
 28 15  1  0
 25 16  1  0
M  END
$$$$
