
     RDKit          3D

 32 36  0  0  0  0  0  0  0  0999 V2000
  188.8525  178.1289  128.6548 C   0  0  1  0  0  0  0  0  0  0  0  0
  187.4606  178.2919  128.2064 C   0  0  1  0  0  0  0  0  0  0  0  0
  187.3217  177.3105  127.0645 C   0  0  0  0  0  0  0  0  0  0  0  0
  188.5002  176.3454  127.2383 C   0  0  0  0  0  0  0  0  0  0  0  0
  189.5616  177.3490  127.5818 C   0  0  1  0  0  0  0  0  0  0  0  0
  189.9673  178.0502  126.3517 C   0  0  0  0  0  0  0  0  0  0  0  0
  190.0517  177.0540  125.3257 O   0  0  0  0  0  0  0  0  0  0  0  0
  190.7538  176.7371  128.3145 C   0  0  0  0  0  0  0  0  0  0  0  0
  191.6212  177.8695  128.7916 C   0  0  0  0  0  0  0  0  0  0  0  0
  190.9275  178.8456  129.7087 C   0  0  2  0  0  0  0  0  0  0  0  0
  190.7518  178.1288  131.0114 C   0  0  0  0  0  0  0  0  0  0  0  0
  189.6713  179.2989  129.0247 C   0  0  2  0  0  0  0  0  0  0  0  0
  188.9789  180.4240  129.7151 C   0  0  0  0  0  0  0  0  0  0  0  0
  190.0043  181.5845  129.6331 C   0  0  0  0  0  0  0  0  0  0  0  0
  191.0852  181.1347  130.5928 C   0  0  2  0  0  0  0  0  0  0  0  0
  191.8749  182.2941  131.1342 C   0  0  1  0  0  0  0  0  0  0  0  0
  192.2375  183.2914  130.1126 C   0  0  0  0  0  0  0  0  0  0  0  0
  190.9460  183.0019  132.1412 C   0  0  0  0  0  0  0  0  0  0  0  0
  191.5964  184.1442  132.8126 C   0  0  0  0  0  0  0  0  0  0  0  0
  193.0722  184.0891  132.9914 C   0  0  2  0  0  0  0  0  0  0  0  0
  193.7215  185.1201  132.2654 O   0  0  0  0  0  0  0  0  0  0  0  0
  193.7127  182.7630  132.8188 C   0  0  0  0  0  0  0  0  0  0  0  0
  195.1421  183.0012  132.2993 C   0  0  0  0  0  0  0  0  0  0  0  0
  193.9798  182.1466  134.2116 C   0  0  0  0  0  0  0  0  0  0  0  0
  192.9744  181.7669  132.0135 C   0  0  2  0  0  0  0  0  0  0  0  0
  193.8410  180.7860  131.2562 C   0  0  0  0  0  0  0  0  0  0  0  0
  192.9428  179.5749  130.9721 C   0  0  0  0  0  0  0  0  0  0  0  0
  191.8613  180.0262  129.9826 C   0  0  1  0  0  0  0  0  0  0  0  0
  192.5641  180.3554  128.7177 C   0  0  0  0  0  0  0  0  0  0  0  0
  186.5532  177.8454  129.3116 C   0  0  0  0  0  0  0  0  0  0  0  0
  185.0679  178.0207  129.2176 C   0  0  0  0  0  0  0  0  0  0  0  0
  187.0015  177.2761  130.3880 C   0  0  0  0  0  0  0  0  0  0  0  0
  1  2  1  6
  2  3  1  0
  3  4  1  0
  4  5  1  0
  5  6  1  6
  6  7  1  0
  5  8  1  0
  8  9  1  0
  9 10  1  0
 10 11  1  1
 10 12  1  0
 12 13  1  1
 13 14  1  0
 15 14  1  6
 15 16  1  0
 16 17  1  6
 16 18  1  0
 18 19  1  0
 19 20  1  0
 20 21  1  6
 20 22  1  0
 22 23  1  0
 22 24  1  0
 22 25  1  0
 25 26  1  6
 26 27  1  0
 27 28  1  0
 28 29  1  6
  2 30  1  1
 30 31  1  0
 30 32  2  0
  5  1  1  0
 28 10  1  0
 12  1  1  0
 28 15  1  0
 25 16  1  0
M  END
$$$$
