
     RDKit          3D

 32 36  0  0  0  0  0  0  0  0999 V2000
  144.7163  183.2827  146.2710 C   0  0  1  0  0  0  0  0  0  0  0  0
  145.8725  182.5140  145.7840 C   0  0  1  0  0  0  0  0  0  0  0  0
  146.6774  183.5180  144.9900 C   0  0  0  0  0  0  0  0  0  0  0  0
  146.1593  184.8838  145.4553 C   0  0  0  0  0  0  0  0  0  0  0  0
  144.6930  184.5669  145.4882 C   0  0  1  0  0  0  0  0  0  0  0  0
  144.1820  184.5416  144.1070 C   0  0  0  0  0  0  0  0  0  0  0  0
  144.3920  185.8541  143.5725 O   0  0  0  0  0  0  0  0  0  0  0  0
  143.8924  185.5137  146.3800 C   0  0  0  0  0  0  0  0  0  0  0  0
  142.5015  184.9542  146.5000 C   0  0  0  0  0  0  0  0  0  0  0  0
  142.4347  183.5614  147.0751 C   0  0  2  0  0  0  0  0  0  0  0  0
  142.7490  183.7049  148.5320 C   0  0  0  0  0  0  0  0  0  0  0  0
  143.3635  182.6944  146.2771 C   0  0  2  0  0  0  0  0  0  0  0  0
  143.2541  181.2413  146.5912 C   0  0  0  0  0  0  0  0  0  0  0  0
  141.8036  180.8887  146.1708 C   0  0  0  0  0  0  0  0  0  0  0  0
  140.9771  181.5871  147.2294 C   0  0  2  0  0  0  0  0  0  0  0  0
  139.6273  180.9474  147.4020 C   0  0  1  0  0  0  0  0  0  0  0  0
  138.9665  180.6082  146.1301 C   0  0  0  0  0  0  0  0  0  0  0  0
  139.8831  179.6189  148.1421 C   0  0  0  0  0  0  0  0  0  0  0  0
  138.6389  178.8840  148.4427 C   0  0  0  0  0  0  0  0  0  0  0  0
  137.3987  179.6811  148.6407 C   0  0  2  0  0  0  0  0  0  0  0  0
  136.4327  179.3941  147.6426 O   0  0  0  0  0  0  0  0  0  0  0  0
  137.5744  181.1337  148.8806 C   0  0  0  0  0  0  0  0  0  0  0  0
  136.3309  181.8505  148.3240 C   0  0  0  0  0  0  0  0  0  0  0  0
  137.4502  181.4135  150.3963 C   0  0  0  0  0  0  0  0  0  0  0  0
  138.8378  181.7384  148.4074 C   0  0  2  0  0  0  0  0  0  0  0  0
  138.7365  183.1876  147.9874 C   0  0  0  0  0  0  0  0  0  0  0  0
  140.1639  183.7439  148.0749 C   0  0  0  0  0  0  0  0  0  0  0  0
  140.9949  183.0516  146.9874 C   0  0  1  0  0  0  0  0  0  0  0  0
  140.4323  183.4938  145.6874 C   0  0  0  0  0  0  0  0  0  0  0  0
  146.6930  182.0959  146.9656 C   0  0  0  0  0  0  0  0  0  0  0  0
  146.7044  182.9014  148.2293 C   0  0  0  0  0  0  0  0  0  0  0  0
  147.4155  181.0180  146.9603 C   0  0  0  0  0  0  0  0  0  0  0  0
  1  2  1  6
  2  3  1  0
  3  4  1  0
  4  5  1  0
  5  6  1  6
  6  7  1  0
  5  8  1  0
  8  9  1  0
  9 10  1  0
 10 11  1  1
 10 12  1  0
 12 13  1  1
 13 14  1  0
 15 14  1  6
 15 16  1  0
 16 17  1  6
 16 18  1  0
 18 19  1  0
 19 20  1  0
 20 21  1  6
 20 22  1  0
 22 23  1  0
 22 24  1  0
 22 25  1  0
 25 26  1  6
 26 27  1  0
 27 28  1  0
 28 29  1  6
  2 30  1  1
 30 31  1  0
 30 32  2  0
  5  1  1  0
 28 10  1  0
 12  1  1  0
 28 15  1  0
 25 16  1  0
M  END
$$$$
