
     RDKit          3D

 32 36  0  0  0  0  0  0  0  0999 V2000
  147.2164  169.0105  134.3793 C   0  0  1  0  0  0  0  0  0  0  0  0
  147.9957  169.8012  135.3450 C   0  0  1  0  0  0  0  0  0  0  0  0
  146.9526  170.5807  136.1134 C   0  0  0  0  0  0  0  0  0  0  0  0
  145.6370  169.8440  135.8361 C   0  0  0  0  0  0  0  0  0  0  0  0
  145.8284  169.5899  134.3696 C   0  0  1  0  0  0  0  0  0  0  0  0
  145.5935  170.8453  133.6360 C   0  0  0  0  0  0  0  0  0  0  0  0
  144.1910  170.8902  133.3472 O   0  0  0  0  0  0  0  0  0  0  0  0
  144.9676  168.4449  133.8398 C   0  0  0  0  0  0  0  0  0  0  0  0
  145.4178  168.1534  132.4346 C   0  0  0  0  0  0  0  0  0  0  0  0
  146.8724  167.7749  132.3093 C   0  0  2  0  0  0  0  0  0  0  0  0
  146.9859  166.3936  132.8760 C   0  0  0  0  0  0  0  0  0  0  0  0
  147.6804  168.8407  132.9893 C   0  0  2  0  0  0  0  0  0  0  0  0
  149.1499  168.7169  132.7720 C   0  0  0  0  0  0  0  0  0  0  0  0
  149.3068  168.9120  131.2416 C   0  0  0  0  0  0  0  0  0  0  0  0
  148.7143  167.6344  130.6864 C   0  0  2  0  0  0  0  0  0  0  0  0
  149.2551  167.3103  129.3213 C   0  0  1  0  0  0  0  0  0  0  0  0
  149.3334  168.4758  128.4240 C   0  0  0  0  0  0  0  0  0  0  0  0
  150.7000  166.8208  129.5467 C   0  0  0  0  0  0  0  0  0  0  0  0
  151.3635  166.4044  128.2957 C   0  0  0  0  0  0  0  0  0  0  0  0
  150.5038  165.8758  127.2029 C   0  0  2  0  0  0  0  0  0  0  0  0
  150.5474  166.7122  126.0581 O   0  0  0  0  0  0  0  0  0  0  0  0
  149.1270  165.4724  127.5773 C   0  0  0  0  0  0  0  0  0  0  0  0
  148.2281  165.6891  126.3466 C   0  0  0  0  0  0  0  0  0  0  0  0
  149.0781  163.9354  127.7396 C   0  0  0  0  0  0  0  0  0  0  0  0
  148.5663  166.0783  128.8038 C   0  0  2  0  0  0  0  0  0  0  0  0
  147.0660  166.2675  128.7967 C   0  0  0  0  0  0  0  0  0  0  0  0
  146.6546  166.3642  130.2717 C   0  0  0  0  0  0  0  0  0  0  0  0
  147.2370  167.6698  130.8272 C   0  0  1  0  0  0  0  0  0  0  0  0
  146.5504  168.7719  130.1089 C   0  0  0  0  0  0  0  0  0  0  0  0
  148.6622  168.8578  136.2989 C   0  0  0  0  0  0  0  0  0  0  0  0
  149.6467  169.3473  137.3173 C   0  0  0  0  0  0  0  0  0  0  0  0
  148.4117  167.5845  136.3019 C   0  0  0  0  0  0  0  0  0  0  0  0
  1  2  1  1
  2  3  1  0
  3  4  1  0
  4  5  1  0
  5  6  1  6
  6  7  1  0
  5  8  1  0
  8  9  1  0
  9 10  1  0
 10 11  1  1
 10 12  1  0
 12 13  1  1
 13 14  1  0
 15 14  1  6
 15 16  1  0
 16 17  1  6
 16 18  1  0
 18 19  1  0
 19 20  1  0
 20 21  1  6
 20 22  1  0
 22 23  1  0
 22 24  1  0
 22 25  1  0
 25 26  1  6
 26 27  1  0
 27 28  1  0
 28 29  1  6
  2 30  1  1
 30 31  1  0
 30 32  2  0
  5  1  1  0
 28 10  1  0
 12  1  1  0
 28 15  1  0
 25 16  1  0
M  END
$$$$
