
     RDKit          3D

 32 36  0  0  0  0  0  0  0  0999 V2000
  164.1175  150.1025  127.3188 C   0  0  1  0  0  0  0  0  0  0  0  0
  163.1593  149.3284  128.1236 C   0  0  1  0  0  0  0  0  0  0  0  0
  162.4591  150.3687  128.9683 C   0  0  0  0  0  0  0  0  0  0  0  0
  162.7502  151.6989  128.2639 C   0  0  0  0  0  0  0  0  0  0  0  0
  164.1977  151.4689  127.9423 C   0  0  1  0  0  0  0  0  0  0  0  0
  164.9897  151.6372  129.1727 C   0  0  0  0  0  0  0  0  0  0  0  0
  164.4143  152.7439  129.8774 O   0  0  0  0  0  0  0  0  0  0  0  0
  164.7090  152.3505  126.8046 C   0  0  0  0  0  0  0  0  0  0  0  0
  166.0850  151.8653  126.4398 C   0  0  0  0  0  0  0  0  0  0  0  0
  166.1456  150.4210  126.0091 C   0  0  2  0  0  0  0  0  0  0  0  0
  165.5193  150.3729  124.6499 C   0  0  0  0  0  0  0  0  0  0  0  0
  165.4829  149.5998  127.0757 C   0  0  2  0  0  0  0  0  0  0  0  0
  165.6452  148.1291  126.8951 C   0  0  0  0  0  0  0  0  0  0  0  0
  167.1762  147.9162  127.0204 C   0  0  0  0  0  0  0  0  0  0  0  0
  167.6983  148.5334  125.7406 C   0  0  2  0  0  0  0  0  0  0  0  0
  169.0300  147.9601  125.3419 C   0  0  1  0  0  0  0  0  0  0  0  0
  169.9711  147.8133  126.4655 C   0  0  0  0  0  0  0  0  0  0  0  0
  168.7361  146.5407  124.8155 C   0  0  0  0  0  0  0  0  0  0  0  0
  169.9459  145.8516  124.3255 C   0  0  0  0  0  0  0  0  0  0  0  0
  171.0446  146.6929  123.7797 C   0  0  2  0  0  0  0  0  0  0  0  0
  172.2205  146.5839  124.5653 O   0  0  0  0  0  0  0  0  0  0  0  0
  170.7006  148.0939  123.4375 C   0  0  0  0  0  0  0  0  0  0  0  0
  171.9688  148.9447  123.6314 C   0  0  0  0  0  0  0  0  0  0  0  0
  170.4773  148.2003  121.9111 C   0  0  0  0  0  0  0  0  0  0  0  0
  169.5195  148.6732  124.1124 C   0  0  2  0  0  0  0  0  0  0  0  0
  169.5850  150.1652  124.3499 C   0  0  0  0  0  0  0  0  0  0  0  0
  168.1299  150.6205  124.5218 C   0  0  0  0  0  0  0  0  0  0  0  0
  167.6090  150.0125  125.8300 C   0  0  1  0  0  0  0  0  0  0  0  0
  168.3947  150.6377  126.9227 C   0  0  0  0  0  0  0  0  0  0  0  0
  162.1456  148.7255  127.1999 C   0  0  0  0  0  0  0  0  0  0  0  0
  162.4156  148.5863  125.7324 C   0  0  0  0  0  0  0  0  0  0  0  0
  161.0008  148.2837  127.6219 C   0  0  0  0  0  0  0  0  0  0  0  0
  1  2  1  1
  2  3  1  0
  3  4  1  0
  4  5  1  0
  5  6  1  1
  6  7  1  0
  5  8  1  0
  8  9  1  0
  9 10  1  0
 10 11  1  6
 10 12  1  0
 12 13  1  6
 13 14  1  0
 15 14  1  1
 15 16  1  0
 16 17  1  1
 16 18  1  0
 18 19  1  0
 19 20  1  0
 20 21  1  1
 20 22  1  0
 22 23  1  0
 22 24  1  0
 22 25  1  0
 25 26  1  1
 26 27  1  0
 27 28  1  0
 28 29  1  1
  2 30  1  6
 30 31  1  0
 30 32  2  0
  5  1  1  0
 28 10  1  0
 12  1  1  0
 28 15  1  0
 25 16  1  0
M  END
$$$$
