
     RDKit          3D

 32 36  0  0  0  0  0  0  0  0999 V2000
  165.1720  158.2831  128.0396 C   0  0  1  0  0  0  0  0  0  0  0  0
  165.0920  159.7500  128.1222 C   0  0  1  0  0  0  0  0  0  0  0  0
  163.9374  160.0058  129.0643 C   0  0  0  0  0  0  0  0  0  0  0  0
  163.7342  158.6749  129.7975 C   0  0  0  0  0  0  0  0  0  0  0  0
  163.8949  157.7489  128.6277 C   0  0  1  0  0  0  0  0  0  0  0  0
  162.6690  157.7969  127.8127 C   0  0  0  0  0  0  0  0  0  0  0  0
  161.6543  157.1217  128.5657 O   0  0  0  0  0  0  0  0  0  0  0  0
  164.2590  156.3226  129.0348 C   0  0  0  0  0  0  0  0  0  0  0  0
  164.6072  155.5692  127.7805 C   0  0  0  0  0  0  0  0  0  0  0  0
  165.7471  156.1621  126.9904 C   0  0  2  0  0  0  0  0  0  0  0  0
  166.9859  155.8740  127.7806 C   0  0  0  0  0  0  0  0  0  0  0  0
  165.4319  157.6097  126.7530 C   0  0  2  0  0  0  0  0  0  0  0  0
  166.3655  158.2848  125.8072 C   0  0  0  0  0  0  0  0  0  0  0  0
  166.1376  157.5286  124.4726 C   0  0  0  0  0  0  0  0  0  0  0  0
  166.7623  156.1781  124.7509 C   0  0  2  0  0  0  0  0  0  0  0  0
  167.1939  155.4868  123.4873 C   0  0  1  0  0  0  0  0  0  0  0  0
  166.2057  155.5733  122.3984 C   0  0  0  0  0  0  0  0  0  0  0  0
  168.4546  156.2347  123.0084 C   0  0  0  0  0  0  0  0  0  0  0  0
  169.0442  155.6398  121.7931 C   0  0  0  0  0  0  0  0  0  0  0  0
  168.8528  154.1804  121.5777 C   0  0  2  0  0  0  0  0  0  0  0  0
  168.0832  153.9244  120.4142 O   0  0  0  0  0  0  0  0  0  0  0  0
  168.4145  153.3881  122.7518 C   0  0  0  0  0  0  0  0  0  0  0  0
  167.5853  152.2013  122.2285 C   0  0  0  0  0  0  0  0  0  0  0  0
  169.6411  152.6728  123.3642 C   0  0  0  0  0  0  0  0  0  0  0  0
  167.7296  154.1258  123.8346 C   0  0  2  0  0  0  0  0  0  0  0  0
  166.7016  153.3266  124.6035 C   0  0  0  0  0  0  0  0  0  0  0  0
  166.5403  154.0466  125.9489 C   0  0  0  0  0  0  0  0  0  0  0  0
  165.8872  155.4056  125.6680 C   0  0  1  0  0  0  0  0  0  0  0  0
  164.5229  155.1162  125.1609 C   0  0  0  0  0  0  0  0  0  0  0  0
  166.3417  160.2548  128.7762 C   0  0  0  0  0  0  0  0  0  0  0  0
  167.0480  161.4747  128.2673 C   0  0  0  0  0  0  0  0  0  0  0  0
  166.8616  159.6765  129.8150 C   0  0  0  0  0  0  0  0  0  0  0  0
  1  2  1  6
  2  3  1  0
  3  4  1  0
  4  5  1  0
  5  6  1  6
  6  7  1  0
  5  8  1  0
  8  9  1  0
  9 10  1  0
 10 11  1  1
 10 12  1  0
 12 13  1  1
 13 14  1  0
 15 14  1  6
 15 16  1  0
 16 17  1  6
 16 18  1  0
 18 19  1  0
 19 20  1  0
 20 21  1  6
 20 22  1  0
 22 23  1  0
 22 24  1  0
 22 25  1  0
 25 26  1  6
 26 27  1  0
 27 28  1  0
 28 29  1  6
  2 30  1  1
 30 31  1  0
 30 32  2  0
  5  1  1  0
 28 10  1  0
 12  1  1  0
 28 15  1  0
 25 16  1  0
M  END
$$$$
