
     RDKit          3D

 32 36  0  0  0  0  0  0  0  0999 V2000
  136.8121  135.2240  134.1015 C   0  0  1  0  0  0  0  0  0  0  0  0
  137.7958  134.1425  134.2681 C   0  0  1  0  0  0  0  0  0  0  0  0
  139.1326  134.8272  134.0937 C   0  0  0  0  0  0  0  0  0  0  0  0
  138.8319  136.3179  134.2879 C   0  0  0  0  0  0  0  0  0  0  0  0
  137.5522  136.3910  133.5078 C   0  0  1  0  0  0  0  0  0  0  0  0
  137.8711  136.3660  132.0700 C   0  0  0  0  0  0  0  0  0  0  0  0
  138.3304  137.6806  131.7333 O   0  0  0  0  0  0  0  0  0  0  0  0
  136.6858  137.5913  133.8836 C   0  0  0  0  0  0  0  0  0  0  0  0
  135.3558  137.4200  133.2027 C   0  0  0  0  0  0  0  0  0  0  0  0
  134.6250  136.1518  133.5669 C   0  0  2  0  0  0  0  0  0  0  0  0
  134.1392  136.3480  134.9695 C   0  0  0  0  0  0  0  0  0  0  0  0
  135.5656  135.0043  133.3437 C   0  0  2  0  0  0  0  0  0  0  0  0
  134.9238  133.6642  133.4619 C   0  0  0  0  0  0  0  0  0  0  0  0
  133.8889  133.6558  132.3070 C   0  0  0  0  0  0  0  0  0  0  0  0
  132.8466  134.6396  132.7943 C   0  0  2  0  0  0  0  0  0  0  0  0
  131.5002  134.3856  132.1748 C   0  0  1  0  0  0  0  0  0  0  0  0
  131.5570  134.1073  130.7295 C   0  0  0  0  0  0  0  0  0  0  0  0
  130.9579  133.1124  132.8552 C   0  0  0  0  0  0  0  0  0  0  0  0
  129.6026  132.7520  132.3946 C   0  0  0  0  0  0  0  0  0  0  0  0
  128.7130  133.8548  131.9415 C   0  0  2  0  0  0  0  0  0  0  0  0
  128.3927  133.7307  130.5654 O   0  0  0  0  0  0  0  0  0  0  0  0
  129.1129  135.2302  132.3247 C   0  0  0  0  0  0  0  0  0  0  0  0
  128.6014  136.1848  131.2307 C   0  0  0  0  0  0  0  0  0  0  0  0
  128.2798  135.6752  133.5491 C   0  0  0  0  0  0  0  0  0  0  0  0
  130.5408  135.4441  132.6428 C   0  0  2  0  0  0  0  0  0  0  0  0
  131.0688  136.8242  132.3220 C   0  0  0  0  0  0  0  0  0  0  0  0
  132.3167  137.0028  133.1967 C   0  0  0  0  0  0  0  0  0  0  0  0
  133.3796  136.0210  132.6880 C   0  0  1  0  0  0  0  0  0  0  0  0
  133.7382  136.4667  131.3187 C   0  0  0  0  0  0  0  0  0  0  0  0
  137.7138  133.6428  135.6780 C   0  0  0  0  0  0  0  0  0  0  0  0
  138.8495  132.8925  136.3049 C   0  0  0  0  0  0  0  0  0  0  0  0
  136.6724  133.8459  136.4250 C   0  0  0  0  0  0  0  0  0  0  0  0
  1  2  1  6
  2  3  1  0
  3  4  1  0
  4  5  1  0
  5  6  1  6
  6  7  1  0
  5  8  1  0
  8  9  1  0
  9 10  1  0
 10 11  1  1
 10 12  1  0
 12 13  1  1
 13 14  1  0
 15 14  1  6
 15 16  1  0
 16 17  1  6
 16 18  1  0
 18 19  1  0
 19 20  1  0
 20 21  1  6
 20 22  1  0
 22 23  1  0
 22 24  1  0
 22 25  1  0
 25 26  1  6
 26 27  1  0
 27 28  1  0
 28 29  1  6
  2 30  1  1
 30 31  1  0
 30 32  2  0
  5  1  1  0
 28 10  1  0
 12  1  1  0
 28 15  1  0
 25 16  1  0
M  END
$$$$
