
     RDKit          3D

 32 36  0  0  0  0  0  0  0  0999 V2000
  131.5174  163.3033  155.4255 C   0  0  1  0  0  0  0  0  0  0  0  0
  130.5581  163.9911  154.5471 C   0  0  1  0  0  0  0  0  0  0  0  0
  129.3712  163.0561  154.4902 C   0  0  0  0  0  0  0  0  0  0  0  0
  129.5564  162.1223  155.6918 C   0  0  0  0  0  0  0  0  0  0  0  0
  131.0328  161.8863  155.5656 C   0  0  1  0  0  0  0  0  0  0  0  0
  131.2700  160.9470  154.4560 C   0  0  0  0  0  0  0  0  0  0  0  0
  130.6639  159.7064  154.8380 O   0  0  0  0  0  0  0  0  0  0  0  0
  131.6804  161.4148  156.8660 C   0  0  0  0  0  0  0  0  0  0  0  0
  133.1705  161.4357  156.6628 C   0  0  0  0  0  0  0  0  0  0  0  0
  133.7329  162.7858  156.2936 C   0  0  2  0  0  0  0  0  0  0  0  0
  133.6613  163.6133  157.5394 C   0  0  0  0  0  0  0  0  0  0  0  0
  132.9590  163.2938  155.1128 C   0  0  2  0  0  0  0  0  0  0  0  0
  133.5311  164.5261  154.4995 C   0  0  0  0  0  0  0  0  0  0  0  0
  134.9203  164.0641  153.9881 C   0  0  0  0  0  0  0  0  0  0  0  0
  135.6931  163.8653  155.2746 C   0  0  2  0  0  0  0  0  0  0  0  0
  137.1768  163.9901  155.0645 C   0  0  1  0  0  0  0  0  0  0  0  0
  137.6638  163.2983  153.8588 C   0  0  0  0  0  0  0  0  0  0  0  0
  137.4471  165.4942  154.8580 C   0  0  0  0  0  0  0  0  0  0  0  0
  138.8817  165.7988  154.6911 C   0  0  0  0  0  0  0  0  0  0  0  0
  139.8595  164.8969  155.3570 C   0  0  2  0  0  0  0  0  0  0  0  0
  140.6688  164.2193  154.4095 O   0  0  0  0  0  0  0  0  0  0  0  0
  139.3259  164.0027  156.4124 C   0  0  0  0  0  0  0  0  0  0  0  0
  140.1922  162.7302  156.4255 C   0  0  0  0  0  0  0  0  0  0  0  0
  139.6391  164.6142  157.7978 C   0  0  0  0  0  0  0  0  0  0  0  0
  137.8787  163.7039  156.3627 C   0  0  2  0  0  0  0  0  0  0  0  0
  137.4868  162.3435  156.8941 C   0  0  0  0  0  0  0  0  0  0  0  0
  136.0011  162.4554  157.2608 C   0  0  0  0  0  0  0  0  0  0  0  0
  135.2172  162.6347  155.9548 C   0  0  1  0  0  0  0  0  0  0  0  0
  135.3850  161.3736  155.1908 C   0  0  0  0  0  0  0  0  0  0  0  0
  130.1190  165.2533  155.2241 C   0  0  0  0  0  0  0  0  0  0  0  0
  129.1900  165.2232  156.3996 C   0  0  0  0  0  0  0  0  0  0  0  0
  130.5291  166.4232  154.8407 C   0  0  0  0  0  0  0  0  0  0  0  0
  1  2  1  6
  2  3  1  0
  3  4  1  0
  4  5  1  0
  5  6  1  6
  6  7  1  0
  5  8  1  0
  8  9  1  0
  9 10  1  0
 10 11  1  1
 10 12  1  0
 12 13  1  1
 13 14  1  0
 15 14  1  6
 15 16  1  0
 16 17  1  6
 16 18  1  0
 18 19  1  0
 19 20  1  0
 20 21  1  6
 20 22  1  0
 22 23  1  0
 22 24  1  0
 22 25  1  0
 25 26  1  6
 26 27  1  0
 27 28  1  0
 28 29  1  6
  2 30  1  1
 30 31  1  0
 30 32  2  0
  5  1  1  0
 28 10  1  0
 12  1  1  0
 28 15  1  0
 25 16  1  0
M  END
$$$$
