
     RDKit          3D

 32 36  0  0  0  0  0  0  0  0999 V2000
  166.1676  152.6824  126.8960 C   0  0  1  0  0  0  0  0  0  0  0  0
  165.8803  153.4420  125.6690 C   0  0  1  0  0  0  0  0  0  0  0  0
  164.8275  154.4422  126.0902 C   0  0  0  0  0  0  0  0  0  0  0  0
  164.9187  154.4788  127.6201 C   0  0  0  0  0  0  0  0  0  0  0  0
  165.0684  153.0068  127.8700 C   0  0  1  0  0  0  0  0  0  0  0  0
  163.7568  152.3600  127.6942 C   0  0  0  0  0  0  0  0  0  0  0  0
  162.8014  153.1911  128.3640 O   0  0  0  0  0  0  0  0  0  0  0  0
  165.6895  152.6870  129.2282 C   0  0  0  0  0  0  0  0  0  0  0  0
  165.9867  151.2128  129.2537 C   0  0  0  0  0  0  0  0  0  0  0  0
  166.9173  150.7431  128.1636 C   0  0  2  0  0  0  0  0  0  0  0  0
  168.2742  151.2555  128.5352 C   0  0  0  0  0  0  0  0  0  0  0  0
  166.3622  151.2207  126.8540 C   0  0  2  0  0  0  0  0  0  0  0  0
  167.0586  150.6601  125.6613 C   0  0  0  0  0  0  0  0  0  0  0  0
  166.7812  149.1377  125.7628 C   0  0  0  0  0  0  0  0  0  0  0  0
  167.6304  148.7286  126.9473 C   0  0  2  0  0  0  0  0  0  0  0  0
  167.9990  147.2715  126.8986 C   0  0  1  0  0  0  0  0  0  0  0  0
  166.8805  146.3908  126.5206 C   0  0  0  0  0  0  0  0  0  0  0  0
  169.0638  147.1440  125.7906 C   0  0  0  0  0  0  0  0  0  0  0  0
  169.5790  145.7680  125.6495 C   0  0  0  0  0  0  0  0  0  0  0  0
  169.5823  144.9059  126.8618 C   0  0  2  0  0  0  0  0  0  0  0  0
  168.7201  143.7903  126.7072 O   0  0  0  0  0  0  0  0  0  0  0  0
  169.4178  145.5929  128.1654 C   0  0  0  0  0  0  0  0  0  0  0  0
  168.7163  144.6122  129.1224 C   0  0  0  0  0  0  0  0  0  0  0  0
  170.8043  145.7497  128.8317 C   0  0  0  0  0  0  0  0  0  0  0  0
  168.7712  146.9223  128.1402 C   0  0  2  0  0  0  0  0  0  0  0  0
  167.9785  147.2726  129.3794 C   0  0  0  0  0  0  0  0  0  0  0  0
  167.8810  148.8038  129.3884 C   0  0  0  0  0  0  0  0  0  0  0  0
  167.0023  149.2159  128.2009 C   0  0  1  0  0  0  0  0  0  0  0  0
  165.6439  148.6899  128.4844 C   0  0  0  0  0  0  0  0  0  0  0  0
  167.1124  154.2030  125.2856 C   0  0  0  0  0  0  0  0  0  0  0  0
  167.3945  155.5625  125.8495 C   0  0  0  0  0  0  0  0  0  0  0  0
  167.9963  153.7219  124.4663 C   0  0  0  0  0  0  0  0  0  0  0  0
  1  2  1  6
  2  3  1  0
  3  4  1  0
  4  5  1  0
  5  6  1  6
  6  7  1  0
  5  8  1  0
  8  9  1  0
  9 10  1  0
 10 11  1  1
 10 12  1  0
 12 13  1  6
 13 14  1  0
 15 14  1  6
 15 16  1  0
 16 17  1  6
 16 18  1  0
 18 19  1  0
 19 20  1  0
 20 21  1  6
 20 22  1  0
 22 23  1  0
 22 24  1  0
 22 25  1  0
 25 26  1  1
 26 27  1  0
 27 28  1  0
 28 29  1  1
  2 30  1  1
 30 31  1  0
 30 32  2  0
  5  1  1  0
 28 10  1  0
 12  1  1  0
 28 15  1  0
 25 16  1  0
M  END
$$$$
