
     RDKit          3D

 32 36  0  0  0  0  0  0  0  0999 V2000
  201.7184  139.3498  131.2983 C   0  0  1  0  0  0  0  0  0  0  0  0
  200.5052  140.1693  131.4450 C   0  0  1  0  0  0  0  0  0  0  0  0
  201.0189  141.5913  131.4670 C   0  0  0  0  0  0  0  0  0  0  0  0
  202.4330  141.5008  130.8819 C   0  0  0  0  0  0  0  0  0  0  0  0
  202.8857  140.2543  131.5839 C   0  0  1  0  0  0  0  0  0  0  0  0
  203.1952  140.5849  132.9854 C   0  0  0  0  0  0  0  0  0  0  0  0
  204.6225  140.6664  133.0774 O   0  0  0  0  0  0  0  0  0  0  0  0
  204.0535  139.5606  130.8856 C   0  0  0  0  0  0  0  0  0  0  0  0
  204.2538  138.2285  131.5546 C   0  0  0  0  0  0  0  0  0  0  0  0
  203.0488  137.3220  131.5172 C   0  0  2  0  0  0  0  0  0  0  0  0
  202.9353  136.8507  130.1006 C   0  0  0  0  0  0  0  0  0  0  0  0
  201.8810  138.0946  132.0562 C   0  0  2  0  0  0  0  0  0  0  0  0
  200.6597  137.2692  132.2772 C   0  0  0  0  0  0  0  0  0  0  0  0
  201.0990  136.2583  133.3681 C   0  0  0  0  0  0  0  0  0  0  0  0
  202.0553  135.3587  132.6147 C   0  0  2  0  0  0  0  0  0  0  0  0
  202.1628  133.9980  133.2456 C   0  0  1  0  0  0  0  0  0  0  0  0
  202.2688  134.0336  134.7143 C   0  0  0  0  0  0  0  0  0  0  0  0
  200.8438  133.2732  132.9092 C   0  0  0  0  0  0  0  0  0  0  0  0
  200.8092  131.8868  133.4145 C   0  0  0  0  0  0  0  0  0  0  0  0
  202.1049  131.1670  133.5409 C   0  0  2  0  0  0  0  0  0  0  0  0
  202.3924  130.8502  134.8931 O   0  0  0  0  0  0  0  0  0  0  0  0
  203.2618  131.7514  132.8209 C   0  0  0  0  0  0  0  0  0  0  0  0
  204.5318  131.3934  133.6138 C   0  0  0  0  0  0  0  0  0  0  0  0
  203.4809  130.9736  131.5025 C   0  0  0  0  0  0  0  0  0  0  0  0
  203.1839  133.1910  132.4932 C   0  0  2  0  0  0  0  0  0  0  0  0
  204.5125  133.9120  132.4544 C   0  0  0  0  0  0  0  0  0  0  0  0
  204.2797  135.1613  131.5945 C   0  0  0  0  0  0  0  0  0  0  0  0
  203.3280  136.0819  132.3687 C   0  0  1  0  0  0  0  0  0  0  0  0
  204.0634  136.5172  133.5819 C   0  0  0  0  0  0  0  0  0  0  0  0
  199.6691  139.9998  130.2136 C   0  0  0  0  0  0  0  0  0  0  0  0
  199.9805  138.9393  129.2015 C   0  0  0  0  0  0  0  0  0  0  0  0
  198.6346  140.7447  129.9713 C   0  0  0  0  0  0  0  0  0  0  0  0
  1  2  1  1
  2  3  1  0
  3  4  1  0
  4  5  1  0
  5  6  1  1
  6  7  1  0
  5  8  1  0
  8  9  1  0
  9 10  1  0
 10 11  1  6
 10 12  1  0
 12 13  1  6
 13 14  1  0
 15 14  1  1
 15 16  1  0
 16 17  1  1
 16 18  1  0
 18 19  1  0
 19 20  1  0
 20 21  1  1
 20 22  1  0
 22 23  1  0
 22 24  1  0
 22 25  1  0
 25 26  1  1
 26 27  1  0
 27 28  1  0
 28 29  1  1
  2 30  1  6
 30 31  1  0
 30 32  2  0
  5  1  1  0
 28 10  1  0
 12  1  1  0
 28 15  1  0
 25 16  1  0
M  END
$$$$
