
     RDKit          3D

 32 36  0  0  0  0  0  0  0  0999 V2000
  165.2926  157.1044  127.2247 C   0  0  1  0  0  0  0  0  0  0  0  0
  166.0885  157.8876  128.1828 C   0  0  1  0  0  0  0  0  0  0  0  0
  166.2405  159.2388  127.5213 C   0  0  0  0  0  0  0  0  0  0  0  0
  165.1463  159.2692  126.4479 C   0  0  0  0  0  0  0  0  0  0  0  0
  165.3030  157.8697  125.9299 C   0  0  1  0  0  0  0  0  0  0  0  0
  166.5076  157.8088  125.0844 C   0  0  0  0  0  0  0  0  0  0  0  0
  166.3951  156.6132  124.3032 O   0  0  0  0  0  0  0  0  0  0  0  0
  164.0630  157.3551  125.2015 C   0  0  0  0  0  0  0  0  0  0  0  0
  164.2688  155.8886  124.9389 C   0  0  0  0  0  0  0  0  0  0  0  0
  164.4936  155.0566  126.1767 C   0  0  2  0  0  0  0  0  0  0  0  0
  163.1661  154.9807  126.8652 C   0  0  0  0  0  0  0  0  0  0  0  0
  165.6101  155.6895  126.9539 C   0  0  2  0  0  0  0  0  0  0  0  0
  166.0904  154.8676  128.1010 C   0  0  0  0  0  0  0  0  0  0  0  0
  166.6537  153.5925  127.4214 C   0  0  0  0  0  0  0  0  0  0  0  0
  165.3990  152.8997  126.9344 C   0  0  2  0  0  0  0  0  0  0  0  0
  165.6003  151.4181  126.7748 C   0  0  1  0  0  0  0  0  0  0  0  0
  166.8751  151.0604  126.1293 C   0  0  0  0  0  0  0  0  0  0  0  0
  165.6459  150.8436  128.2052 C   0  0  0  0  0  0  0  0  0  0  0  0
  165.7849  149.3743  128.2261 C   0  0  0  0  0  0  0  0  0  0  0  0
  165.2232  148.6127  127.0783 C   0  0  2  0  0  0  0  0  0  0  0  0
  166.2409  147.9413  126.3536 O   0  0  0  0  0  0  0  0  0  0  0  0
  164.2674  149.3361  126.2057 C   0  0  0  0  0  0  0  0  0  0  0  0
  164.3940  148.7473  124.7890 C   0  0  0  0  0  0  0  0  0  0  0  0
  162.8258  148.9299  126.5906 C   0  0  0  0  0  0  0  0  0  0  0  0
  164.3430  150.8126  126.2159 C   0  0  2  0  0  0  0  0  0  0  0  0
  163.9587  151.4827  124.9159 C   0  0  0  0  0  0  0  0  0  0  0  0
  163.5763  152.9209  125.2897 C   0  0  0  0  0  0  0  0  0  0  0  0
  164.8525  153.6283  125.7622 C   0  0  1  0  0  0  0  0  0  0  0  0
  165.7477  153.7070  124.5812 C   0  0  0  0  0  0  0  0  0  0  0  0
  165.2786  158.0726  129.4294 C   0  0  0  0  0  0  0  0  0  0  0  0
  165.8889  158.6340  130.6777 C   0  0  0  0  0  0  0  0  0  0  0  0
  164.0171  157.7739  129.4861 C   0  0  0  0  0  0  0  0  0  0  0  0
  1  2  1  1
  2  3  1  0
  3  4  1  0
  4  5  1  0
  5  6  1  6
  6  7  1  0
  5  8  1  0
  8  9  1  0
  9 10  1  0
 10 11  1  1
 10 12  1  0
 12 13  1  1
 13 14  1  0
 15 14  1  6
 15 16  1  0
 16 17  1  6
 16 18  1  0
 18 19  1  0
 19 20  1  0
 20 21  1  6
 20 22  1  0
 22 23  1  0
 22 24  1  0
 22 25  1  0
 25 26  1  6
 26 27  1  0
 27 28  1  0
 28 29  1  6
  2 30  1  1
 30 31  1  0
 30 32  2  0
  5  1  1  0
 28 10  1  0
 12  1  1  0
 28 15  1  0
 25 16  1  0
M  END
$$$$
