
     RDKit          3D

 32 36  0  0  0  0  0  0  0  0999 V2000
  164.9018  151.7858  127.1407 C   0  0  1  0  0  0  0  0  0  0  0  0
  164.3583  151.0586  128.2986 C   0  0  1  0  0  0  0  0  0  0  0  0
  163.7707  149.7993  127.7029 C   0  0  0  0  0  0  0  0  0  0  0  0
  164.4171  149.6887  126.3172 C   0  0  0  0  0  0  0  0  0  0  0  0
  164.3284  151.1313  125.9139 C   0  0  1  0  0  0  0  0  0  0  0  0
  162.9368  151.4343  125.5382 C   0  0  0  0  0  0  0  0  0  0  0  0
  162.6542  150.6577  124.3680 O   0  0  0  0  0  0  0  0  0  0  0  0
  165.3166  151.5103  124.8127 C   0  0  0  0  0  0  0  0  0  0  0  0
  165.2798  153.0068  124.6673 C   0  0  0  0  0  0  0  0  0  0  0  0
  165.6270  153.7663  125.9234 C   0  0  2  0  0  0  0  0  0  0  0  0
  167.1021  153.5919  126.1122 C   0  0  0  0  0  0  0  0  0  0  0  0
  164.7501  153.2487  127.0254 C   0  0  2  0  0  0  0  0  0  0  0  0
  164.8284  154.0430  128.2843 C   0  0  0  0  0  0  0  0  0  0  0  0
  164.2877  155.4354  127.8675 C   0  0  0  0  0  0  0  0  0  0  0  0
  165.4005  155.9696  126.9912 C   0  0  2  0  0  0  0  0  0  0  0  0
  165.4051  157.4725  126.9413 C   0  0  1  0  0  0  0  0  0  0  0  0
  164.0650  158.0632  126.7835 C   0  0  0  0  0  0  0  0  0  0  0  0
  165.9408  157.9369  128.3108 C   0  0  0  0  0  0  0  0  0  0  0  0
  166.0621  159.4046  128.4085 C   0  0  0  0  0  0  0  0  0  0  0  0
  166.3209  160.1597  127.1532 C   0  0  2  0  0  0  0  0  0  0  0  0
  165.2442  161.0276  126.8386 O   0  0  0  0  0  0  0  0  0  0  0  0
  166.7924  159.3711  125.9894 C   0  0  0  0  0  0  0  0  0  0  0  0
  166.2941  160.0782  124.7161 C   0  0  0  0  0  0  0  0  0  0  0  0
  168.3253  159.5286  125.8608 C   0  0  0  0  0  0  0  0  0  0  0  0
  166.4816  157.9256  125.9949 C   0  0  2  0  0  0  0  0  0  0  0  0
  166.2879  157.3068  124.6288 C   0  0  0  0  0  0  0  0  0  0  0  0
  166.5307  155.8036  124.8179 C   0  0  0  0  0  0  0  0  0  0  0  0
  165.3906  155.2593  125.6877 C   0  0  1  0  0  0  0  0  0  0  0  0
  164.1494  155.4044  124.8875 C   0  0  0  0  0  0  0  0  0  0  0  0
  165.4991  150.6613  129.1845 C   0  0  0  0  0  0  0  0  0  0  0  0
  165.5898  151.1444  130.6003 C   0  0  0  0  0  0  0  0  0  0  0  0
  166.4483  149.8744  128.7800 C   0  0  0  0  0  0  0  0  0  0  0  0
  1  2  1  1
  2  3  1  0
  3  4  1  0
  4  5  1  0
  5  6  1  6
  6  7  1  0
  5  8  1  0
  8  9  1  0
  9 10  1  0
 10 11  1  1
 10 12  1  0
 12 13  1  1
 13 14  1  0
 15 14  1  1
 15 16  1  0
 16 17  1  6
 16 18  1  0
 18 19  1  0
 19 20  1  0
 20 21  1  6
 20 22  1  0
 22 23  1  0
 22 24  1  0
 22 25  1  0
 25 26  1  6
 26 27  1  0
 27 28  1  0
 28 29  1  6
  2 30  1  1
 30 31  1  0
 30 32  2  0
  5  1  1  0
 28 10  1  0
 12  1  1  0
 28 15  1  0
 25 16  1  0
M  END
$$$$
