
     RDKit          3D

 32 36  0  0  0  0  0  0  0  0999 V2000
  189.2911  161.4513  122.9622 C   0  0  1  0  0  0  0  0  0  0  0  0
  189.1302  162.6630  122.1432 C   0  0  1  0  0  0  0  0  0  0  0  0
  190.0075  162.4144  120.9371 C   0  0  0  0  0  0  0  0  0  0  0  0
  190.2488  160.9004  120.9397 C   0  0  0  0  0  0  0  0  0  0  0  0
  190.4803  160.7139  122.4105 C   0  0  1  0  0  0  0  0  0  0  0  0
  191.8295  161.2019  122.7440 C   0  0  0  0  0  0  0  0  0  0  0  0
  192.5561  161.2608  121.5108 O   0  0  0  0  0  0  0  0  0  0  0  0
  190.2572  159.2770  122.8775 C   0  0  0  0  0  0  0  0  0  0  0  0
  190.2995  159.2784  124.3810 C   0  0  0  0  0  0  0  0  0  0  0  0
  189.2767  160.1733  125.0350 C   0  0  2  0  0  0  0  0  0  0  0  0
  187.9565  159.4929  124.8449 C   0  0  0  0  0  0  0  0  0  0  0  0
  189.4136  161.5394  124.4297 C   0  0  2  0  0  0  0  0  0  0  0  0
  188.6106  162.5894  125.1184 C   0  0  0  0  0  0  0  0  0  0  0  0
  189.2267  162.6411  126.5406 C   0  0  0  0  0  0  0  0  0  0  0  0
  188.7677  161.3308  127.1439 C   0  0  2  0  0  0  0  0  0  0  0  0
  188.7222  161.3884  128.6458 C   0  0  1  0  0  0  0  0  0  0  0  0
  189.8939  162.0470  129.2483 C   0  0  0  0  0  0  0  0  0  0  0  0
  187.4936  162.2518  128.9964 C   0  0  0  0  0  0  0  0  0  0  0  0
  187.2707  162.3636  130.4512 C   0  0  0  0  0  0  0  0  0  0  0  0
  187.7207  161.2325  131.3061 C   0  0  2  0  0  0  0  0  0  0  0  0
  188.7486  161.6330  132.1976 O   0  0  0  0  0  0  0  0  0  0  0  0
  188.0147  159.9541  130.6150 C   0  0  0  0  0  0  0  0  0  0  0  0
  189.1046  159.2281  131.4241 C   0  0  0  0  0  0  0  0  0  0  0  0
  186.8081  159.0013  130.7815 C   0  0  0  0  0  0  0  0  0  0  0  0
  188.3361  160.0350  129.1741 C   0  0  2  0  0  0  0  0  0  0  0  0
  189.2864  158.9726  128.6691 C   0  0  0  0  0  0  0  0  0  0  0  0
  189.0492  158.8919  127.1553 C   0  0  0  0  0  0  0  0  0  0  0  0
  189.5350  160.2113  126.5425 C   0  0  1  0  0  0  0  0  0  0  0  0
  191.0033  160.2538  126.7532 C   0  0  0  0  0  0  0  0  0  0  0  0
  187.7091  162.7305  121.6741 C   0  0  0  0  0  0  0  0  0  0  0  0
  186.6788  163.5192  122.4238 C   0  0  0  0  0  0  0  0  0  0  0  0
  187.3062  162.1285  120.5975 C   0  0  0  0  0  0  0  0  0  0  0  0
  1  2  1  6
  2  3  1  0
  3  4  1  0
  4  5  1  0
  5  6  1  1
  6  7  1  0
  5  8  1  0
  8  9  1  0
  9 10  1  0
 10 11  1  1
 10 12  1  0
 12 13  1  1
 13 14  1  0
 15 14  1  1
 15 16  1  0
 16 17  1  1
 16 18  1  0
 18 19  1  0
 19 20  1  0
 20 21  1  6
 20 22  1  0
 22 23  1  0
 22 24  1  0
 22 25  1  0
 25 26  1  1
 26 27  1  0
 27 28  1  0
 28 29  1  6
  2 30  1  6
 30 31  1  0
 30 32  2  0
  5  1  1  0
 28 10  1  0
 12  1  1  0
 28 15  1  0
 25 16  1  0
M  END
$$$$
