
     RDKit          3D

 32 36  0  0  0  0  0  0  0  0999 V2000
  189.8227  161.7961  135.4115 C   0  0  1  0  0  0  0  0  0  0  0  0
  189.9870  160.6858  134.4601 C   0  0  1  0  0  0  0  0  0  0  0  0
  190.8270  161.2718  133.3479 C   0  0  0  0  0  0  0  0  0  0  0  0
  191.4542  162.5303  133.9587 C   0  0  0  0  0  0  0  0  0  0  0  0
  190.2509  163.0458  134.6922 C   0  0  1  0  0  0  0  0  0  0  0  0
  189.3257  163.6515  133.7193 C   0  0  0  0  0  0  0  0  0  0  0  0
  190.0474  164.7094  133.0772 O   0  0  0  0  0  0  0  0  0  0  0  0
  190.6030  164.0069  135.8258 C   0  0  0  0  0  0  0  0  0  0  0  0
  189.3445  164.2641  136.6080 C   0  0  0  0  0  0  0  0  0  0  0  0
  188.7061  163.0280  137.1908 C   0  0  2  0  0  0  0  0  0  0  0  0
  189.5931  162.6030  138.3197 C   0  0  0  0  0  0  0  0  0  0  0  0
  188.5285  162.0390  136.0765 C   0  0  2  0  0  0  0  0  0  0  0  0
  187.7205  160.8439  136.4515 C   0  0  0  0  0  0  0  0  0  0  0  0
  186.3263  161.4384  136.7796 C   0  0  0  0  0  0  0  0  0  0  0  0
  186.5804  162.1700  138.0803 C   0  0  2  0  0  0  0  0  0  0  0  0
  185.3244  162.3272  138.8920 C   0  0  1  0  0  0  0  0  0  0  0  0
  184.1525  162.7312  138.0963 C   0  0  0  0  0  0  0  0  0  0  0  0
  185.0163  160.9291  139.4650 C   0  0  0  0  0  0  0  0  0  0  0  0
  183.8295  160.9205  140.3425 C   0  0  0  0  0  0  0  0  0  0  0  0
  183.5077  162.1726  141.0784 C   0  0  2  0  0  0  0  0  0  0  0  0
  182.2617  162.7106  140.6664 O   0  0  0  0  0  0  0  0  0  0  0  0
  184.5831  163.1900  141.1595 C   0  0  0  0  0  0  0  0  0  0  0  0
  183.9104  164.5725  141.2353 C   0  0  0  0  0  0  0  0  0  0  0  0
  185.2662  163.0930  142.5435 C   0  0  0  0  0  0  0  0  0  0  0  0
  185.6378  163.1276  140.1253 C   0  0  2  0  0  0  0  0  0  0  0  0
  186.2534  164.4588  139.7569 C   0  0  0  0  0  0  0  0  0  0  0  0
  187.6184  164.1263  139.1401 C   0  0  0  0  0  0  0  0  0  0  0  0
  187.3596  163.4046  137.8117 C   0  0  1  0  0  0  0  0  0  0  0  0
  186.7062  164.3942  136.9196 C   0  0  0  0  0  0  0  0  0  0  0  0
  190.7883  159.6089  135.1252 C   0  0  0  0  0  0  0  0  0  0  0  0
  190.1850  158.7255  136.1747 C   0  0  0  0  0  0  0  0  0  0  0  0
  192.0279  159.3787  134.8182 C   0  0  0  0  0  0  0  0  0  0  0  0
  1  2  1  6
  2  3  1  0
  3  4  1  0
  4  5  1  0
  5  6  1  6
  6  7  1  0
  5  8  1  0
  8  9  1  0
  9 10  1  0
 10 11  1  1
 10 12  1  0
 12 13  1  1
 13 14  1  0
 15 14  1  6
 15 16  1  0
 16 17  1  6
 16 18  1  0
 18 19  1  0
 19 20  1  0
 20 21  1  6
 20 22  1  0
 22 23  1  0
 22 24  1  0
 22 25  1  0
 25 26  1  6
 26 27  1  0
 27 28  1  0
 28 29  1  6
  2 30  1  1
 30 31  1  0
 30 32  2  0
  5  1  1  0
 28 10  1  0
 12  1  1  0
 28 15  1  0
 25 16  1  0
M  END
$$$$
