
     RDKit          3D

 32 36  0  0  0  0  0  0  0  0999 V2000
  188.6025  162.7370  136.8083 C   0  0  1  0  0  0  0  0  0  0  0  0
  188.7801  162.2241  135.4406 C   0  0  1  0  0  0  0  0  0  0  0  0
  189.8445  163.1176  134.8450 C   0  0  0  0  0  0  0  0  0  0  0  0
  190.5132  163.7817  136.0541 C   0  0  0  0  0  0  0  0  0  0  0  0
  189.2801  164.0789  136.8557 C   0  0  1  0  0  0  0  0  0  0  0  0
  188.5935  165.2371  136.2583 C   0  0  0  0  0  0  0  0  0  0  0  0
  188.6553  165.0573  134.8384 O   0  0  0  0  0  0  0  0  0  0  0  0
  189.5634  164.2830  138.3426 C   0  0  0  0  0  0  0  0  0  0  0  0
  188.2382  164.3457  139.0511 C   0  0  0  0  0  0  0  0  0  0  0  0
  187.3771  163.1196  138.8775 C   0  0  2  0  0  0  0  0  0  0  0  0
  188.0233  162.0464  139.6976 C   0  0  0  0  0  0  0  0  0  0  0  0
  187.2587  162.8511  137.4061 C   0  0  2  0  0  0  0  0  0  0  0  0
  186.2680  161.7918  137.0623 C   0  0  0  0  0  0  0  0  0  0  0  0
  184.9193  162.3887  137.5417 C   0  0  0  0  0  0  0  0  0  0  0  0
  185.0538  162.3327  139.0484 C   0  0  2  0  0  0  0  0  0  0  0  0
  183.7148  162.2952  139.7317 C   0  0  1  0  0  0  0  0  0  0  0  0
  182.7353  163.2385  139.1658 C   0  0  0  0  0  0  0  0  0  0  0  0
  183.1602  160.8763  139.4922 C   0  0  0  0  0  0  0  0  0  0  0  0
  181.8595  160.6526  140.1531 C   0  0  0  0  0  0  0  0  0  0  0  0
  181.5771  161.4200  141.3957 C   0  0  2  0  0  0  0  0  0  0  0  0
  180.4814  162.3037  141.2219 O   0  0  0  0  0  0  0  0  0  0  0  0
  182.7390  162.0568  142.0612 C   0  0  0  0  0  0  0  0  0  0  0  0
  182.2296  163.3209  142.7769 C   0  0  0  0  0  0  0  0  0  0  0  0
  183.1842  161.1757  143.2514 C   0  0  0  0  0  0  0  0  0  0  0  0
  183.9260  162.3201  141.2199 C   0  0  2  0  0  0  0  0  0  0  0  0
  184.7428  163.5267  141.6240 C   0  0  0  0  0  0  0  0  0  0  0  0
  186.1381  163.2999  141.0274 C   0  0  0  0  0  0  0  0  0  0  0  0
  186.0045  163.3789  139.5015 C   0  0  1  0  0  0  0  0  0  0  0  0
  185.6172  164.7767  139.1883 C   0  0  0  0  0  0  0  0  0  0  0  0
  189.3374  160.8361  135.5256 C   0  0  0  0  0  0  0  0  0  0  0  0
  188.8938  159.7603  134.5813 C   0  0  0  0  0  0  0  0  0  0  0  0
  190.2345  160.5027  136.4019 C   0  0  0  0  0  0  0  0  0  0  0  0
  1  2  1  6
  2  3  1  0
  3  4  1  0
  4  5  1  0
  5  6  1  6
  6  7  1  0
  5  8  1  0
  8  9  1  0
  9 10  1  0
 10 11  1  1
 10 12  1  0
 12 13  1  1
 13 14  1  0
 15 14  1  6
 15 16  1  0
 16 17  1  6
 16 18  1  0
 18 19  1  0
 19 20  1  0
 20 21  1  6
 20 22  1  0
 22 23  1  0
 22 24  1  0
 22 25  1  0
 25 26  1  1
 26 27  1  0
 27 28  1  0
 28 29  1  1
  2 30  1  1
 30 31  1  0
 30 32  2  0
  5  1  1  0
 28 10  1  0
 12  1  1  0
 28 15  1  0
 25 16  1  0
M  END
$$$$
