
     RDKit          3D

 32 36  0  0  0  0  0  0  0  0999 V2000
  173.1220  161.9759  112.8231 C   0  0  1  0  0  0  0  0  0  0  0  0
  172.6251  160.6670  112.3705 C   0  0  1  0  0  0  0  0  0  0  0  0
  172.6894  159.7985  113.6066 C   0  0  0  0  0  0  0  0  0  0  0  0
  172.7907  160.7902  114.7713 C   0  0  0  0  0  0  0  0  0  0  0  0
  173.7693  161.7508  114.1619 C   0  0  1  0  0  0  0  0  0  0  0  0
  175.1131  161.1492  114.2033 C   0  0  0  0  0  0  0  0  0  0  0  0
  175.4991  161.1127  115.5824 O   0  0  0  0  0  0  0  0  0  0  0  0
  173.7385  163.1335  114.8099 C   0  0  0  0  0  0  0  0  0  0  0  0
  174.5889  164.0459  113.9695 C   0  0  0  0  0  0  0  0  0  0  0  0
  174.1472  164.1656  112.5323 C   0  0  2  0  0  0  0  0  0  0  0  0
  172.8924  164.9821  112.5567 C   0  0  0  0  0  0  0  0  0  0  0  0
  174.0260  162.7772  111.9763 C   0  0  2  0  0  0  0  0  0  0  0  0
  173.7976  162.7331  110.5040 C   0  0  0  0  0  0  0  0  0  0  0  0
  175.0881  163.3633  109.9188 C   0  0  0  0  0  0  0  0  0  0  0  0
  174.9421  164.8211  110.2998 C   0  0  2  0  0  0  0  0  0  0  0  0
  175.7220  165.7228  109.3833 C   0  0  1  0  0  0  0  0  0  0  0  0
  177.0745  165.2271  109.0758 C   0  0  0  0  0  0  0  0  0  0  0  0
  174.9412  165.7480  108.0538 C   0  0  0  0  0  0  0  0  0  0  0  0
  175.5506  166.6429  107.0506 C   0  0  0  0  0  0  0  0  0  0  0  0
  176.3146  167.8179  107.5491 C   0  0  2  0  0  0  0  0  0  0  0  0
  177.6858  167.7325  107.1969 O   0  0  0  0  0  0  0  0  0  0  0  0
  176.0998  168.1965  108.9665 C   0  0  0  0  0  0  0  0  0  0  0  0
  177.4024  168.8372  109.4790 C   0  0  0  0  0  0  0  0  0  0  0  0
  175.1151  169.3872  109.0271 C   0  0  0  0  0  0  0  0  0  0  0  0
  175.5935  167.1399  109.8683 C   0  0  2  0  0  0  0  0  0  0  0  0
  176.0441  167.2557  111.3072 C   0  0  0  0  0  0  0  0  0  0  0  0
  175.0194  166.4598  112.1263 C   0  0  0  0  0  0  0  0  0  0  0  0
  175.1832  164.9805  111.7558 C   0  0  1  0  0  0  0  0  0  0  0  0
  176.5302  164.5780  112.2309 C   0  0  0  0  0  0  0  0  0  0  0  0
  171.1850  160.8160  111.9857 C   0  0  0  0  0  0  0  0  0  0  0  0
  170.0974  160.7900  113.0163 C   0  0  0  0  0  0  0  0  0  0  0  0
  170.8116  160.9889  110.7550 C   0  0  0  0  0  0  0  0  0  0  0  0
  1  2  1  6
  2  3  1  0
  3  4  1  0
  4  5  1  0
  5  6  1  6
  6  7  1  0
  5  8  1  0
  8  9  1  0
  9 10  1  0
 10 11  1  1
 10 12  1  0
 12 13  1  6
 13 14  1  0
 15 14  1  6
 15 16  1  0
 16 17  1  6
 16 18  1  0
 18 19  1  0
 19 20  1  0
 20 21  1  1
 20 22  1  0
 22 23  1  0
 22 24  1  0
 22 25  1  0
 25 26  1  1
 26 27  1  0
 27 28  1  0
 28 29  1  6
  2 30  1  1
 30 31  1  0
 30 32  2  0
  5  1  1  0
 28 10  1  0
 12  1  1  0
 28 15  1  0
 25 16  1  0
M  END
$$$$
