
     RDKit          3D

 32 36  0  0  0  0  0  0  0  0999 V2000
  195.0277  176.6210  131.9820 C   0  0  1  0  0  0  0  0  0  0  0  0
  196.2415  177.1041  132.6590 C   0  0  1  0  0  0  0  0  0  0  0  0
  196.6099  175.9830  133.6043 C   0  0  0  0  0  0  0  0  0  0  0  0
  195.8445  174.7643  133.0759 C   0  0  0  0  0  0  0  0  0  0  0  0
  194.5385  175.4366  132.7695 C   0  0  1  0  0  0  0  0  0  0  0  0
  193.8211  175.6777  134.0331 C   0  0  0  0  0  0  0  0  0  0  0  0
  193.3004  174.4106  134.4523 O   0  0  0  0  0  0  0  0  0  0  0  0
  193.6865  174.6663  131.7628 C   0  0  0  0  0  0  0  0  0  0  0  0
  192.5300  175.5484  131.3805 C   0  0  0  0  0  0  0  0  0  0  0  0
  192.9258  176.8736  130.7786 C   0  0  2  0  0  0  0  0  0  0  0  0
  193.4387  176.5629  129.4067 C   0  0  0  0  0  0  0  0  0  0  0  0
  193.8952  177.5287  131.7180 C   0  0  2  0  0  0  0  0  0  0  0  0
  194.2212  178.9395  131.3639 C   0  0  0  0  0  0  0  0  0  0  0  0
  192.8613  179.6713  131.5054 C   0  0  0  0  0  0  0  0  0  0  0  0
  192.0777  179.1367  130.3257 C   0  0  2  0  0  0  0  0  0  0  0  0
  190.9899  180.0827  129.8977 C   0  0  1  0  0  0  0  0  0  0  0  0
  190.2302  180.6576  131.0210 C   0  0  0  0  0  0  0  0  0  0  0  0
  191.7043  181.2542  129.1940 C   0  0  0  0  0  0  0  0  0  0  0  0
  190.7637  182.2573  128.6579 C   0  0  0  0  0  0  0  0  0  0  0  0
  189.4129  181.7863  128.2500 C   0  0  2  0  0  0  0  0  0  0  0  0
  188.3969  182.3700  129.0493 O   0  0  0  0  0  0  0  0  0  0  0  0
  189.2456  180.3239  128.0717 C   0  0  0  0  0  0  0  0  0  0  0  0
  187.7823  179.9795  128.4036 C   0  0  0  0  0  0  0  0  0  0  0  0
  189.3166  179.9880  126.5640 C   0  0  0  0  0  0  0  0  0  0  0  0
  190.2084  179.4527  128.7787 C   0  0  2  0  0  0  0  0  0  0  0  0
  189.6649  178.1053  129.1982 C   0  0  0  0  0  0  0  0  0  0  0  0
  190.8928  177.2040  129.3833 C   0  0  0  0  0  0  0  0  0  0  0  0
  191.6741  177.7333  130.5923 C   0  0  1  0  0  0  0  0  0  0  0  0
  190.8008  177.5306  131.7749 C   0  0  0  0  0  0  0  0  0  0  0  0
  197.3333  177.2263  131.6405 C   0  0  0  0  0  0  0  0  0  0  0  0
  198.0721  176.0211  131.1433 C   0  0  0  0  0  0  0  0  0  0  0  0
  197.6801  178.3683  131.1310 C   0  0  0  0  0  0  0  0  0  0  0  0
  1  2  1  1
  2  3  1  0
  3  4  1  0
  4  5  1  0
  5  6  1  1
  6  7  1  0
  5  8  1  0
  8  9  1  0
  9 10  1  0
 10 11  1  6
 10 12  1  0
 12 13  1  6
 13 14  1  0
 15 14  1  1
 15 16  1  0
 16 17  1  1
 16 18  1  0
 18 19  1  0
 19 20  1  0
 20 21  1  1
 20 22  1  0
 22 23  1  0
 22 24  1  0
 22 25  1  0
 25 26  1  1
 26 27  1  0
 27 28  1  0
 28 29  1  1
  2 30  1  6
 30 31  1  0
 30 32  2  0
  5  1  1  0
 28 10  1  0
 12  1  1  0
 28 15  1  0
 25 16  1  0
M  END
$$$$
