
     RDKit          3D

 32 36  0  0  0  0  0  0  0  0999 V2000
  147.6179  169.4034  134.3144 C   0  0  1  0  0  0  0  0  0  0  0  0
  147.8238  170.7982  134.7353 C   0  0  1  0  0  0  0  0  0  0  0  0
  147.0433  170.9153  136.0249 C   0  0  0  0  0  0  0  0  0  0  0  0
  146.8227  169.4669  136.4766 C   0  0  0  0  0  0  0  0  0  0  0  0
  146.4836  168.8668  135.1437 C   0  0  1  0  0  0  0  0  0  0  0  0
  145.1068  169.2501  134.7874 C   0  0  0  0  0  0  0  0  0  0  0  0
  144.3476  169.2117  136.0017 O   0  0  0  0  0  0  0  0  0  0  0  0
  146.6901  167.3543  135.0945 C   0  0  0  0  0  0  0  0  0  0  0  0
  146.5347  166.9230  133.6621 C   0  0  0  0  0  0  0  0  0  0  0  0
  147.4933  167.5825  132.7023 C   0  0  2  0  0  0  0  0  0  0  0  0
  148.8330  166.9739  132.9794 C   0  0  0  0  0  0  0  0  0  0  0  0
  147.3841  169.0661  132.8974 C   0  0  2  0  0  0  0  0  0  0  0  0
  148.1188  169.8662  131.8766 C   0  0  0  0  0  0  0  0  0  0  0  0
  147.3967  169.5115  130.5509 C   0  0  0  0  0  0  0  0  0  0  0  0
  147.8264  168.0789  130.3172 C   0  0  2  0  0  0  0  0  0  0  0  0
  147.7579  167.7010  128.8634 C   0  0  1  0  0  0  0  0  0  0  0  0
  146.5354  168.1686  128.1876 C   0  0  0  0  0  0  0  0  0  0  0  0
  148.9450  168.4159  128.1868 C   0  0  0  0  0  0  0  0  0  0  0  0
  149.0561  168.1020  126.7488 C   0  0  0  0  0  0  0  0  0  0  0  0
  148.5582  166.7766  126.2925 C   0  0  2  0  0  0  0  0  0  0  0  0
  147.4608  166.9126  125.4042 O   0  0  0  0  0  0  0  0  0  0  0  0
  148.3342  165.7541  127.3426 C   0  0  0  0  0  0  0  0  0  0  0  0
  147.1962  164.8356  126.8620 C   0  0  0  0  0  0  0  0  0  0  0  0
  149.5374  164.7831  127.3662 C   0  0  0  0  0  0  0  0  0  0  0  0
  148.1212  166.2495  128.7193 C   0  0  2  0  0  0  0  0  0  0  0  0
  147.2259  165.3861  129.5794 C   0  0  0  0  0  0  0  0  0  0  0  0
  147.5775  165.7427  131.0298 C   0  0  0  0  0  0  0  0  0  0  0  0
  147.1217  167.1870  131.2719 C   0  0  1  0  0  0  0  0  0  0  0  0
  145.6412  167.1801  131.1701 C   0  0  0  0  0  0  0  0  0  0  0  0
  149.2752  170.9852  135.0557 C   0  0  0  0  0  0  0  0  0  0  0  0
  149.8148  170.6898  136.4223 C   0  0  0  0  0  0  0  0  0  0  0  0
  150.1324  171.3934  134.1712 C   0  0  0  0  0  0  0  0  0  0  0  0
  1  2  1  6
  2  3  1  0
  3  4  1  0
  4  5  1  0
  5  6  1  6
  6  7  1  0
  5  8  1  0
  8  9  1  0
  9 10  1  0
 10 11  1  1
 10 12  1  0
 12 13  1  6
 13 14  1  0
 15 14  1  6
 15 16  1  0
 16 17  1  6
 16 18  1  0
 18 19  1  0
 19 20  1  0
 20 21  1  1
 20 22  1  0
 22 23  1  0
 22 24  1  0
 22 25  1  0
 25 26  1  6
 26 27  1  0
 27 28  1  0
 28 29  1  1
  2 30  1  1
 30 31  1  0
 30 32  2  0
  5  1  1  0
 28 10  1  0
 12  1  1  0
 28 15  1  0
 25 16  1  0
M  END
$$$$
