
     RDKit          3D

 35 40  0  0  0  0  0  0  0  0999 V2000
  128.0403  146.9996  136.8433 C   0  0  0  0  0  0  0  0  0  0  0  0
  128.4077  146.9931  135.3725 C   0  0  2  0  0  0  0  0  0  0  0  0
  128.4863  148.4318  134.9404 C   0  0  2  0  0  0  0  0  0  0  0  0
  129.0371  149.3240  135.9066 N   0  0  0  0  0  0  0  0  0  0  0  0
  129.0186  150.6489  135.3582 C   0  0  0  0  0  0  0  0  0  0  0  0
  127.7719  151.0962  134.7324 C   0  0  1  0  0  0  0  0  0  0  0  0
  128.0914  152.0531  133.5990 C   0  0  0  0  0  0  0  0  0  0  0  0
  126.8656  150.0390  134.1891 C   0  0  0  0  0  0  0  0  0  0  0  0
  126.9803  148.7477  134.9211 C   0  0  1  0  0  0  0  0  0  0  0  0
  126.4140  147.6633  134.3436 O   0  0  0  0  0  0  0  0  0  0  0  0
  127.2334  146.5448  134.4952 C   0  0  2  0  0  0  0  0  0  0  0  0
  126.4988  145.4347  135.1541 C   0  0  0  0  0  0  0  0  0  0  0  0
  126.5741  144.1076  134.4280 C   0  0  0  0  0  0  0  0  0  0  0  0
  127.9352  143.5256  134.7444 C   0  0  1  0  0  0  0  0  0  0  0  0
  128.0313  142.0562  134.5305 C   0  0  2  0  0  0  0  0  0  0  0  0
  127.7051  141.2268  135.7500 C   0  0  0  0  0  0  0  0  0  0  0  0
  128.4807  139.9275  135.6446 C   0  0  0  0  0  0  0  0  0  0  0  0
  128.7394  139.5452  134.2049 C   0  0  2  0  0  0  0  0  0  0  0  0
  129.3593  138.1640  134.2056 C   0  0  0  0  0  0  0  0  0  0  0  0
  130.0365  137.8688  132.8724 C   0  0  1  0  0  0  0  0  0  0  0  0
  131.1675  138.8149  132.6306 C   0  0  0  0  0  0  0  0  0  0  0  0
  131.0658  140.0784  133.4509 C   0  0  0  0  0  0  0  0  0  0  0  0
  129.6386  140.5615  133.5070 C   0  0  1  0  0  0  0  0  0  0  0  0
  129.0978  140.7613  132.1290 C   0  0  0  0  0  0  0  0  0  0  0  0
  129.5288  141.8415  134.2699 C   0  0  1  0  0  0  0  0  0  0  0  0
  130.0244  143.0513  133.5749 C   0  0  0  0  0  0  0  0  0  0  0  0
  128.9037  144.0520  133.7235 C   0  0  0  0  0  0  0  0  0  0  0  0
  128.7941  145.1986  133.0629 C   0  0  0  0  0  0  0  0  0  0  0  0
  129.9271  145.4287  132.1173 C   0  0  0  0  0  0  0  0  0  0  0  0
  127.7635  146.2317  133.1211 C   0  0  0  0  0  0  0  0  0  0  0  0
  130.5067  136.5152  132.9157 N   0  0  0  0  0  0  0  0  0  0  0  0
  130.6850  135.9256  134.5251 S   0  0  0  0  0  6  0  0  0  0  0  0
  129.1423  136.1284  135.3554 C   0  0  0  0  0  0  0  0  0  0  0  0
  131.0042  134.4648  134.4534 O   0  0  0  0  0  0  0  0  0  0  0  0
  131.8020  136.6071  135.2500 O   0  0  0  0  0  0  0  0  0  0  0  0
  2  1  1  1
  2  3  1  0
  3  4  1  1
  4  5  1  0
  5  6  1  0
  6  7  1  6
  6  8  1  0
  9  8  1  6
  9 10  1  0
 10 11  1  0
 11 12  1  1
 12 13  1  0
 14 13  1  6
 14 15  1  0
 15 16  1  1
 16 17  1  0
 18 17  1  1
 18 19  1  0
 19 20  1  0
 20 21  1  0
 21 22  1  0
 22 23  1  0
 23 24  1  6
 23 25  1  0
 25 26  1  6
 26 27  1  0
 27 28  2  0
 28 29  1  0
 28 30  1  0
 20 31  1  1
 31 32  1  0
 32 33  1  0
 32 34  2  0
 32 35  2  0
 11  2  1  0
 30 11  1  0
  9  3  1  0
 27 14  1  0
 25 15  1  0
 23 18  1  0
M  END
$$$$
