
     RDKit          3D

 35 40  0  0  0  0  0  0  0  0999 V2000
  171.6658  160.5544  111.4773 C   0  0  0  0  0  0  0  0  0  0  0  0
  173.0351  160.8174  112.0723 C   0  0  2  0  0  0  0  0  0  0  0  0
  173.4657  159.5429  112.7453 C   0  0  2  0  0  0  0  0  0  0  0  0
  173.0970  158.3454  112.0649 N   0  0  0  0  0  0  0  0  0  0  0  0
  173.5524  157.2284  112.8404 C   0  0  0  0  0  0  0  0  0  0  0  0
  173.2604  157.2477  114.2758 C   0  0  1  0  0  0  0  0  0  0  0  0
  174.3700  156.5345  115.0258 C   0  0  0  0  0  0  0  0  0  0  0  0
  173.0715  158.5860  114.9141 C   0  0  0  0  0  0  0  0  0  0  0  0
  172.5364  159.6057  113.9704 C   0  0  1  0  0  0  0  0  0  0  0  0
  172.5886  160.8973  114.3694 O   0  0  0  0  0  0  0  0  0  0  0  0
  172.9543  161.7229  113.3064 C   0  0  2  0  0  0  0  0  0  0  0  0
  171.9434  162.7897  113.0914 C   0  0  0  0  0  0  0  0  0  0  0  0
  172.5090  164.1931  113.0252 C   0  0  0  0  0  0  0  0  0  0  0  0
  173.1082  164.3462  111.6436 C   0  0  1  0  0  0  0  0  0  0  0  0
  173.2865  165.7592  111.2127 C   0  0  2  0  0  0  0  0  0  0  0  0
  172.1103  166.3336  110.4591 C   0  0  0  0  0  0  0  0  0  0  0  0
  172.6409  167.4002  109.5201 C   0  0  0  0  0  0  0  0  0  0  0  0
  173.9052  168.0360  110.0526 C   0  0  2  0  0  0  0  0  0  0  0  0
  174.2525  169.1919  109.1386 C   0  0  0  0  0  0  0  0  0  0  0  0
  175.7024  169.6216  109.3288 C   0  0  1  0  0  0  0  0  0  0  0  0
  176.6369  168.5184  108.9515 C   0  0  0  0  0  0  0  0  0  0  0  0
  175.9796  167.1591  108.9605 C   0  0  0  0  0  0  0  0  0  0  0  0
  175.0475  167.0279  110.1384 C   0  0  1  0  0  0  0  0  0  0  0  0
  175.7762  167.2894  111.4157 C   0  0  0  0  0  0  0  0  0  0  0  0
  174.4300  165.6684  110.1926 C   0  0  1  0  0  0  0  0  0  0  0  0
  175.3206  164.5726  110.6380 C   0  0  0  0  0  0  0  0  0  0  0  0
  174.5281  163.8593  111.7067 C   0  0  0  0  0  0  0  0  0  0  0  0
  175.0065  162.9581  112.5566 C   0  0  0  0  0  0  0  0  0  0  0  0
  176.4628  162.6941  112.3563 C   0  0  0  0  0  0  0  0  0  0  0  0
  174.3420  162.2140  113.6232 C   0  0  0  0  0  0  0  0  0  0  0  0
  175.9229  170.7769  108.5091 N   0  0  0  0  0  0  0  0  0  0  0  0
  176.0793  170.3852  106.8382 S   0  0  0  0  0  6  0  0  0  0  0  0
  177.4214  169.2540  106.6654 C   0  0  0  0  0  0  0  0  0  0  0  0
  174.8192  169.7071  106.3988 O   0  0  0  0  0  0  0  0  0  0  0  0
  176.2660  171.6051  105.9928 O   0  0  0  0  0  0  0  0  0  0  0  0
  2  1  1  1
  2  3  1  0
  3  4  1  6
  4  5  1  0
  5  6  1  0
  6  7  1  1
  6  8  1  0
  9  8  1  1
  9 10  1  0
 10 11  1  0
 11 12  1  6
 12 13  1  0
 14 13  1  1
 14 15  1  0
 15 16  1  6
 16 17  1  0
 18 17  1  6
 18 19  1  0
 19 20  1  0
 20 21  1  0
 21 22  1  0
 22 23  1  0
 23 24  1  1
 23 25  1  0
 25 26  1  1
 26 27  1  0
 27 28  2  0
 28 29  1  0
 28 30  1  0
 20 31  1  6
 31 32  1  0
 32 33  1  0
 32 34  2  0
 32 35  2  0
 11  2  1  0
 30 11  1  0
  9  3  1  0
 27 14  1  0
 25 15  1  0
 23 18  1  0
M  END
$$$$
