
     RDKit          3D

 35 40  0  0  0  0  0  0  0  0999 V2000
  187.5767  160.8280  136.6039 C   0  0  0  0  0  0  0  0  0  0  0  0
  187.9354  162.2291  137.0583 C   0  0  2  0  0  0  0  0  0  0  0  0
  189.1356  162.6498  136.2548 C   0  0  2  0  0  0  0  0  0  0  0  0
  189.1362  162.2160  134.8966 N   0  0  0  0  0  0  0  0  0  0  0  0
  190.3482  162.6706  134.2794 C   0  0  0  0  0  0  0  0  0  0  0  0
  191.5971  162.4418  135.0099 C   0  0  1  0  0  0  0  0  0  0  0  0
  192.5743  163.5608  134.7011 C   0  0  0  0  0  0  0  0  0  0  0  0
  191.5037  162.3211  136.4968 C   0  0  0  0  0  0  0  0  0  0  0  0
  190.1945  161.7767  136.9511 C   0  0  1  0  0  0  0  0  0  0  0  0
  189.9097  161.8851  138.2691 O   0  0  0  0  0  0  0  0  0  0  0  0
  188.5707  162.2291  138.4532 C   0  0  2  0  0  0  0  0  0  0  0  0
  187.8849  161.2426  139.3264 C   0  0  0  0  0  0  0  0  0  0  0  0
  187.1279  161.8468  140.4908 C   0  0  0  0  0  0  0  0  0  0  0  0
  185.8344  162.3900  139.9221 C   0  0  1  0  0  0  0  0  0  0  0  0
  184.7638  162.5921  140.9354 C   0  0  2  0  0  0  0  0  0  0  0  0
  183.8528  161.4022  141.1245 C   0  0  0  0  0  0  0  0  0  0  0  0
  182.5003  161.9237  141.5714 C   0  0  0  0  0  0  0  0  0  0  0  0
  182.6246  163.2284  142.3252 C   0  0  2  0  0  0  0  0  0  0  0  0
  181.2544  163.5706  142.8708 C   0  0  0  0  0  0  0  0  0  0  0  0
  181.1768  165.0397  143.2694 C   0  0  1  0  0  0  0  0  0  0  0  0
  181.3656  165.9232  142.0792 C   0  0  0  0  0  0  0  0  0  0  0  0
  182.0533  165.2262  140.9297 C   0  0  0  0  0  0  0  0  0  0  0  0
  183.1660  164.3425  141.4340 C   0  0  1  0  0  0  0  0  0  0  0  0
  184.1352  165.1333  142.2502 C   0  0  0  0  0  0  0  0  0  0  0  0
  183.8922  163.6871  140.3045 C   0  0  1  0  0  0  0  0  0  0  0  0
  184.7959  164.5627  139.5241 C   0  0  0  0  0  0  0  0  0  0  0  0
  186.0949  163.7960  139.4610 C   0  0  0  0  0  0  0  0  0  0  0  0
  187.2656  164.2833  139.0670 C   0  0  0  0  0  0  0  0  0  0  0  0
  187.1864  165.7210  138.6700 C   0  0  0  0  0  0  0  0  0  0  0  0
  188.5748  163.6435  138.9699 C   0  0  0  0  0  0  0  0  0  0  0  0
  179.8920  165.2592  143.8663 N   0  0  0  0  0  0  0  0  0  0  0  0
  178.5998  165.1015  142.7373 S   0  0  0  0  0  6  0  0  0  0  0  0
  177.9156  163.4853  142.9121 C   0  0  0  0  0  0  0  0  0  0  0  0
  177.5494  166.1089  143.0877 O   0  0  0  0  0  0  0  0  0  0  0  0
  179.0464  165.3691  141.3349 O   0  0  0  0  0  0  0  0  0  0  0  0
  2  1  1  6
  2  3  1  0
  3  4  1  6
  4  5  1  0
  5  6  1  0
  6  7  1  1
  6  8  1  0
  9  8  1  1
  9 10  1  0
 10 11  1  0
 11 12  1  1
 12 13  1  0
 14 13  1  1
 14 15  1  0
 15 16  1  6
 16 17  1  0
 18 17  1  6
 18 19  1  0
 19 20  1  0
 20 21  1  0
 21 22  1  0
 22 23  1  0
 23 24  1  1
 23 25  1  0
 25 26  1  1
 26 27  1  0
 27 28  2  0
 28 29  1  0
 28 30  1  0
 20 31  1  6
 31 32  1  0
 32 33  1  0
 32 34  2  0
 32 35  2  0
 11  2  1  0
 30 11  1  0
  9  3  1  0
 27 14  1  0
 25 15  1  0
 23 18  1  0
M  END
$$$$
