
     RDKit          3D

 35 40  0  0  0  0  0  0  0  0999 V2000
  133.0709  139.0827  124.9664 C   0  0  0  0  0  0  0  0  0  0  0  0
  133.0822  140.3618  125.7802 C   0  0  2  0  0  0  0  0  0  0  0  0
  133.4983  141.4646  124.8456 C   0  0  2  0  0  0  0  0  0  0  0  0
  132.9895  141.3563  123.5181 N   0  0  0  0  0  0  0  0  0  0  0  0
  133.4938  142.4582  122.7513 C   0  0  0  0  0  0  0  0  0  0  0  0
  134.9277  142.7413  122.8508 C   0  0  1  0  0  0  0  0  0  0  0  0
  135.1599  144.2321  122.6894 C   0  0  0  0  0  0  0  0  0  0  0  0
  135.6217  142.3089  124.1019 C   0  0  0  0  0  0  0  0  0  0  0  0
  134.9921  141.1139  124.7283 C   0  0  1  0  0  0  0  0  0  0  0  0
  135.3699  140.8135  125.9921 O   0  0  0  0  0  0  0  0  0  0  0  0
  134.2698  140.4091  126.7480 C   0  0  2  0  0  0  0  0  0  0  0  0
  134.4987  139.0668  127.3412 C   0  0  0  0  0  0  0  0  0  0  0  0
  134.2492  138.9833  128.8328 C   0  0  0  0  0  0  0  0  0  0  0  0
  132.7474  138.9141  129.0103 C   0  0  1  0  0  0  0  0  0  0  0  0
  132.3164  138.3634  130.3237 C   0  0  2  0  0  0  0  0  0  0  0  0
  132.1038  136.8680  130.3323 C   0  0  0  0  0  0  0  0  0  0  0  0
  131.0584  136.5573  131.3866 C   0  0  0  0  0  0  0  0  0  0  0  0
  131.0632  137.5816  132.4986 C   0  0  2  0  0  0  0  0  0  0  0  0
  130.1154  137.0912  133.5725 C   0  0  0  0  0  0  0  0  0  0  0  0
  129.7274  138.2231  134.5167 C   0  0  1  0  0  0  0  0  0  0  0  0
  128.9840  139.2932  133.7852 C   0  0  0  0  0  0  0  0  0  0  0  0
  129.2184  139.2608  132.2939 C   0  0  0  0  0  0  0  0  0  0  0  0
  130.6652  138.9643  131.9902 C   0  0  1  0  0  0  0  0  0  0  0  0
  131.5564  139.9579  132.6606 C   0  0  0  0  0  0  0  0  0  0  0  0
  130.9254  138.9825  130.5190 C   0  0  1  0  0  0  0  0  0  0  0  0
  130.9549  140.3205  129.8857 C   0  0  0  0  0  0  0  0  0  0  0  0
  132.2319  140.3236  129.0803 C   0  0  0  0  0  0  0  0  0  0  0  0
  132.8007  141.3902  128.5309 C   0  0  0  0  0  0  0  0  0  0  0  0
  132.0343  142.6467  128.7857 C   0  0  0  0  0  0  0  0  0  0  0  0
  134.0242  141.5124  127.7429 C   0  0  0  0  0  0  0  0  0  0  0  0
  128.9163  137.6610  135.5566 N   0  0  0  0  0  0  0  0  0  0  0  0
  127.3079  137.3263  135.0362 S   0  0  0  0  0  6  0  0  0  0  0  0
  126.4843  138.8651  134.7823 C   0  0  0  0  0  0  0  0  0  0  0  0
  127.3827  136.5995  133.7297 O   0  0  0  0  0  0  0  0  0  0  0  0
  126.5755  136.4557  136.0074 O   0  0  0  0  0  0  0  0  0  0  0  0
  2  1  1  6
  2  3  1  0
  3  4  1  6
  4  5  1  0
  5  6  1  0
  6  7  1  1
  6  8  1  0
  9  8  1  1
  9 10  1  0
 10 11  1  0
 11 12  1  1
 12 13  1  0
 14 13  1  1
 14 15  1  0
 15 16  1  6
 16 17  1  0
 18 17  1  6
 18 19  1  0
 19 20  1  0
 20 21  1  0
 21 22  1  0
 22 23  1  0
 23 24  1  1
 23 25  1  0
 25 26  1  1
 26 27  1  0
 27 28  2  0
 28 29  1  0
 28 30  1  0
 20 31  1  1
 31 32  1  0
 32 33  1  0
 32 34  2  0
 32 35  2  0
 11  2  1  0
 30 11  1  0
  9  3  1  0
 27 14  1  0
 25 15  1  0
 23 18  1  0
M  END
$$$$
