
     RDKit          3D

 35 40  0  0  0  0  0  0  0  0999 V2000
  163.8368  153.6598  125.6456 C   0  0  0  0  0  0  0  0  0  0  0  0
  165.3424  153.8263  125.5844 C   0  0  2  0  0  0  0  0  0  0  0  0
  165.6162  154.9141  124.5821 C   0  0  2  0  0  0  0  0  0  0  0  0
  164.6839  155.9928  124.5905 N   0  0  0  0  0  0  0  0  0  0  0  0
  165.0647  156.9251  123.5696 C   0  0  0  0  0  0  0  0  0  0  0  0
  165.3766  156.3778  122.2470 C   0  0  1  0  0  0  0  0  0  0  0  0
  166.4354  157.2377  121.5823 C   0  0  0  0  0  0  0  0  0  0  0  0
  165.8453  154.9597  122.1904 C   0  0  0  0  0  0  0  0  0  0  0  0
  165.3011  154.1267  123.2979 C   0  0  1  0  0  0  0  0  0  0  0  0
  165.8736  152.9167  123.4933 O   0  0  0  0  0  0  0  0  0  0  0  0
  166.0145  152.6569  124.8563 C   0  0  2  0  0  0  0  0  0  0  0  0
  165.3528  151.3789  125.2237 C   0  0  0  0  0  0  0  0  0  0  0  0
  166.2244  150.4166  126.0036 C   0  0  0  0  0  0  0  0  0  0  0  0
  166.2517  150.9259  127.4289 C   0  0  1  0  0  0  0  0  0  0  0  0
  166.6448  149.9000  128.4324 C   0  0  2  0  0  0  0  0  0  0  0  0
  165.4864  149.1339  129.0261 C   0  0  0  0  0  0  0  0  0  0  0  0
  165.8893  148.6980  130.4221 C   0  0  0  0  0  0  0  0  0  0  0  0
  167.3855  148.5166  130.5419 C   0  0  2  0  0  0  0  0  0  0  0  0
  167.6635  147.9209  131.9057 C   0  0  0  0  0  0  0  0  0  0  0  0
  169.1290  148.0921  132.2878 C   0  0  1  0  0  0  0  0  0  0  0  0
  169.4817  149.5395  132.4040 C   0  0  0  0  0  0  0  0  0  0  0  0
  168.5202  150.4422  131.6687 C   0  0  0  0  0  0  0  0  0  0  0  0
  168.1284  149.8350  130.3453 C   0  0  1  0  0  0  0  0  0  0  0  0
  169.3405  149.5439  129.5223 C   0  0  0  0  0  0  0  0  0  0  0  0
  167.2194  150.7413  129.5807 C   0  0  1  0  0  0  0  0  0  0  0  0
  167.8577  151.9290  128.9690 C   0  0  0  0  0  0  0  0  0  0  0  0
  167.3781  151.9142  127.5375 C   0  0  0  0  0  0  0  0  0  0  0  0
  167.8702  152.6480  126.5463 C   0  0  0  0  0  0  0  0  0  0  0  0
  168.9893  153.5337  126.9865 C   0  0  0  0  0  0  0  0  0  0  0  0
  167.4928  152.7132  125.1369 C   0  0  0  0  0  0  0  0  0  0  0  0
  169.3328  147.4177  133.5363 N   0  0  0  0  0  0  0  0  0  0  0  0
  168.1191  147.7946  134.7001 S   0  0  0  0  0  6  0  0  0  0  0  0
  167.2053  149.1817  134.1072 C   0  0  0  0  0  0  0  0  0  0  0  0
  167.1962  146.6210  134.8076 O   0  0  0  0  0  0  0  0  0  0  0  0
  168.7021  148.0487  136.0541 O   0  0  0  0  0  0  0  0  0  0  0  0
  2  1  1  6
  2  3  1  0
  3  4  1  1
  4  5  1  0
  5  6  1  0
  6  7  1  1
  6  8  1  0
  9  8  1  6
  9 10  1  0
 10 11  1  0
 11 12  1  6
 12 13  1  0
 14 13  1  6
 14 15  1  0
 15 16  1  1
 16 17  1  0
 18 17  1  1
 18 19  1  0
 19 20  1  0
 20 21  1  0
 21 22  1  0
 22 23  1  0
 23 24  1  6
 23 25  1  0
 25 26  1  6
 26 27  1  0
 27 28  2  0
 28 29  1  0
 28 30  1  0
 20 31  1  1
 31 32  1  0
 32 33  1  0
 32 34  2  0
 32 35  2  0
 11  2  1  0
 30 11  1  0
  9  3  1  0
 27 14  1  0
 25 15  1  0
 23 18  1  0
M  END
$$$$
