
     RDKit          3D

 35 40  0  0  0  0  0  0  0  0999 V2000
  171.9467  163.2095  115.9280 C   0  0  0  0  0  0  0  0  0  0  0  0
  172.8144  162.0473  115.4867 C   0  0  2  0  0  0  0  0  0  0  0  0
  172.7463  161.0175  116.5811 C   0  0  2  0  0  0  0  0  0  0  0  0
  171.4718  160.8825  117.2058 N   0  0  0  0  0  0  0  0  0  0  0  0
  171.5779  159.8901  118.2355 C   0  0  0  0  0  0  0  0  0  0  0  0
  172.7158  159.9964  119.1519 C   0  0  1  0  0  0  0  0  0  0  0  0
  173.1338  158.6084  119.6002 C   0  0  0  0  0  0  0  0  0  0  0  0
  173.9363  160.6936  118.6435 C   0  0  0  0  0  0  0  0  0  0  0  0
  173.6255  161.7319  117.6227 C   0  0  1  0  0  0  0  0  0  0  0  0
  174.6657  162.2213  116.9097 O   0  0  0  0  0  0  0  0  0  0  0  0
  174.3065  162.3874  115.5723 C   0  0  2  0  0  0  0  0  0  0  0  0
  174.5372  163.7868  115.1311 C   0  0  0  0  0  0  0  0  0  0  0  0
  175.3453  163.9236  113.8575 C   0  0  0  0  0  0  0  0  0  0  0  0
  174.3984  163.6163  112.7171 C   0  0  1  0  0  0  0  0  0  0  0  0
  174.8457  164.1414  111.3987 C   0  0  2  0  0  0  0  0  0  0  0  0
  174.3376  165.5266  111.0753 C   0  0  0  0  0  0  0  0  0  0  0  0
  174.2400  165.6409  109.5659 C   0  0  0  0  0  0  0  0  0  0  0  0
  175.2413  164.7463  108.8709 C   0  0  2  0  0  0  0  0  0  0  0  0
  175.1812  165.0604  107.3911 C   0  0  0  0  0  0  0  0  0  0  0  0
  175.8216  163.9471  106.5703 C   0  0  1  0  0  0  0  0  0  0  0  0
  175.0718  162.6655  106.7380 C   0  0  0  0  0  0  0  0  0  0  0  0
  174.2251  162.6362  107.9878 C   0  0  0  0  0  0  0  0  0  0  0  0
  174.9593  163.2713  109.1416 C   0  0  1  0  0  0  0  0  0  0  0  0
  176.2756  162.5996  109.3592 C   0  0  0  0  0  0  0  0  0  0  0  0
  174.1564  163.2016  110.3997 C   0  0  1  0  0  0  0  0  0  0  0  0
  174.0782  161.8700  111.0422 C   0  0  0  0  0  0  0  0  0  0  0  0
  174.4297  162.1319  112.4869 C   0  0  0  0  0  0  0  0  0  0  0  0
  174.7184  161.2077  113.3955 C   0  0  0  0  0  0  0  0  0  0  0  0
  174.6613  159.8208  112.8441 C   0  0  0  0  0  0  0  0  0  0  0  0
  175.0734  161.3426  114.8057 C   0  0  0  0  0  0  0  0  0  0  0  0
  175.8166  164.3627  105.1982 N   0  0  0  0  0  0  0  0  0  0  0  0
  174.4189  163.8238  104.3465 S   0  0  0  0  0  6  0  0  0  0  0  0
  172.9961  164.3069  105.2699 C   0  0  0  0  0  0  0  0  0  0  0  0
  174.3876  164.5140  103.0186 O   0  0  0  0  0  0  0  0  0  0  0  0
  174.4486  162.3488  104.0993 O   0  0  0  0  0  0  0  0  0  0  0  0
  2  1  1  1
  2  3  1  0
  3  4  1  1
  4  5  1  0
  5  6  1  0
  6  7  1  6
  6  8  1  0
  9  8  1  1
  9 10  1  0
 10 11  1  0
 11 12  1  6
 12 13  1  0
 14 13  1  1
 14 15  1  0
 15 16  1  6
 16 17  1  0
 18 17  1  1
 18 19  1  0
 19 20  1  0
 20 21  1  0
 21 22  1  0
 22 23  1  0
 23 24  1  1
 23 25  1  0
 25 26  1  1
 26 27  1  0
 27 28  2  0
 28 29  1  0
 28 30  1  0
 20 31  1  6
 31 32  1  0
 32 33  1  0
 32 34  2  0
 32 35  2  0
 11  2  1  0
 30 11  1  0
  9  3  1  0
 27 14  1  0
 25 15  1  0
 23 18  1  0
M  END
$$$$
