
     RDKit          3D

 35 40  0  0  0  0  0  0  0  0999 V2000
  139.1181  150.6067  136.3908 C   0  0  0  0  0  0  0  0  0  0  0  0
  139.5542  150.2422  134.9853 C   0  0  2  0  0  0  0  0  0  0  0  0
  138.3722  150.4901  134.0884 C   0  0  2  0  0  0  0  0  0  0  0  0
  137.5911  151.6358  134.4202 N   0  0  0  0  0  0  0  0  0  0  0  0
  136.4972  151.7178  133.4966 C   0  0  0  0  0  0  0  0  0  0  0  0
  135.7355  150.4907  133.2516 C   0  0  1  0  0  0  0  0  0  0  0  0
  135.2184  150.4943  131.8251 C   0  0  0  0  0  0  0  0  0  0  0  0
  136.4451  149.1938  133.4716 C   0  0  0  0  0  0  0  0  0  0  0  0
  137.5100  149.2864  134.5080 C   0  0  1  0  0  0  0  0  0  0  0  0
  138.3822  148.2552  134.5846 O   0  0  0  0  0  0  0  0  0  0  0  0
  139.6769  148.7252  134.8037 C   0  0  2  0  0  0  0  0  0  0  0  0
  140.2650  148.1113  136.0217 C   0  0  0  0  0  0  0  0  0  0  0  0
  141.6327  147.4924  135.8209 C   0  0  0  0  0  0  0  0  0  0  0  0
  142.6207  148.6391  135.8025 C   0  0  1  0  0  0  0  0  0  0  0  0
  144.0243  148.2353  136.0869 C   0  0  2  0  0  0  0  0  0  0  0  0
  144.4069  148.2991  137.5467 C   0  0  0  0  0  0  0  0  0  0  0  0
  145.8982  148.5665  137.6210 C   0  0  0  0  0  0  0  0  0  0  0  0
  146.6249  148.0249  136.4108 C   0  0  2  0  0  0  0  0  0  0  0  0
  148.1091  148.1872  136.6614 C   0  0  0  0  0  0  0  0  0  0  0  0
  148.8979  148.0726  135.3623 C   0  0  1  0  0  0  0  0  0  0  0  0
  148.5291  149.1710  134.4187 C   0  0  0  0  0  0  0  0  0  0  0  0
  147.1900  149.7940  134.7326 C   0  0  0  0  0  0  0  0  0  0  0  0
  146.1926  148.7359  135.1316 C   0  0  1  0  0  0  0  0  0  0  0  0
  146.0740  147.6976  134.0643 C   0  0  0  0  0  0  0  0  0  0  0  0
  144.8468  149.3300  135.3931 C   0  0  1  0  0  0  0  0  0  0  0  0
  144.0838  149.7507  134.1960 C   0  0  0  0  0  0  0  0  0  0  0  0
  142.7201  149.1316  134.3866 C   0  0  0  0  0  0  0  0  0  0  0  0
  141.7737  149.0379  133.4600 C   0  0  0  0  0  0  0  0  0  0  0  0
  142.1889  149.6263  132.1515 C   0  0  0  0  0  0  0  0  0  0  0  0
  140.4332  148.4622  133.5284 C   0  0  0  0  0  0  0  0  0  0  0  0
  150.2911  148.1347  135.6945 N   0  0  0  0  0  0  0  0  0  0  0  0
  150.7306  149.6263  136.4372 S   0  0  0  0  0  6  0  0  0  0  0  0
  150.1079  150.9389  135.4374 C   0  0  0  0  0  0  0  0  0  0  0  0
  150.0716  149.6901  137.7798 O   0  0  0  0  0  0  0  0  0  0  0  0
  152.2083  149.7348  136.6428 O   0  0  0  0  0  0  0  0  0  0  0  0
  2  1  1  1
  2  3  1  0
  3  4  1  1
  4  5  1  0
  5  6  1  0
  6  7  1  6
  6  8  1  0
  9  8  1  6
  9 10  1  0
 10 11  1  0
 11 12  1  1
 12 13  1  0
 14 13  1  6
 14 15  1  0
 15 16  1  1
 16 17  1  0
 18 17  1  1
 18 19  1  0
 19 20  1  0
 20 21  1  0
 21 22  1  0
 22 23  1  0
 23 24  1  6
 23 25  1  0
 25 26  1  6
 26 27  1  0
 27 28  2  0
 28 29  1  0
 28 30  1  0
 20 31  1  1
 31 32  1  0
 32 33  1  0
 32 34  2  0
 32 35  2  0
 11  2  1  0
 30 11  1  0
  9  3  1  0
 27 14  1  0
 25 15  1  0
 23 18  1  0
M  END
$$$$
