
     RDKit          3D

 35 40  0  0  0  0  0  0  0  0999 V2000
  153.8398  147.6871  122.1112 C   0  0  0  0  0  0  0  0  0  0  0  0
  154.8522  148.5425  122.8472 C   0  0  2  0  0  0  0  0  0  0  0  0
  155.1723  147.8253  124.1301 C   0  0  2  0  0  0  0  0  0  0  0  0
  155.2368  146.4046  124.0288 N   0  0  0  0  0  0  0  0  0  0  0  0
  155.5219  145.8728  125.3297 C   0  0  0  0  0  0  0  0  0  0  0  0
  154.7286  146.3850  126.4498 C   0  0  1  0  0  0  0  0  0  0  0  0
  155.5734  146.3793  127.7103 C   0  0  0  0  0  0  0  0  0  0  0  0
  154.1467  147.7537  126.3021 C   0  0  0  0  0  0  0  0  0  0  0  0
  153.8620  148.1106  124.8850 C   0  0  1  0  0  0  0  0  0  0  0  0
  153.5954  149.4106  124.6219 O   0  0  0  0  0  0  0  0  0  0  0  0
  154.2104  149.8048  123.4337 C   0  0  2  0  0  0  0  0  0  0  0  0
  153.2159  150.3615  122.4813 C   0  0  0  0  0  0  0  0  0  0  0  0
  153.5772  151.7167  121.9095 C   0  0  0  0  0  0  0  0  0  0  0  0
  154.6117  151.4632  120.8338 C   0  0  1  0  0  0  0  0  0  0  0  0
  154.7470  152.5705  119.8492 C   0  0  2  0  0  0  0  0  0  0  0  0
  153.8604  152.4349  118.6339 C   0  0  0  0  0  0  0  0  0  0  0  0
  154.5508  153.1356  117.4792 C   0  0  0  0  0  0  0  0  0  0  0  0
  155.4399  154.2607  117.9583 C   0  0  2  0  0  0  0  0  0  0  0  0
  155.9404  154.9974  116.7340 C   0  0  0  0  0  0  0  0  0  0  0  0
  157.1523  155.8578  117.0721 C   0  0  1  0  0  0  0  0  0  0  0  0
  158.2962  155.0094  117.5240 C   0  0  0  0  0  0  0  0  0  0  0  0
  157.8653  153.6437  118.0026 C   0  0  0  0  0  0  0  0  0  0  0  0
  156.5949  153.7402  118.8090 C   0  0  1  0  0  0  0  0  0  0  0  0
  156.7687  154.6880  119.9504 C   0  0  0  0  0  0  0  0  0  0  0  0
  156.1842  152.4039  119.3362 C   0  0  1  0  0  0  0  0  0  0  0  0
  156.9879  151.8807  120.4643 C   0  0  0  0  0  0  0  0  0  0  0  0
  155.9624  151.4658  121.4917 C   0  0  0  0  0  0  0  0  0  0  0  0
  156.2133  151.1584  122.7589 C   0  0  0  0  0  0  0  0  0  0  0  0
  157.6641  151.2594  123.0992 C   0  0  0  0  0  0  0  0  0  0  0  0
  155.3108  150.7520  123.8327 C   0  0  0  0  0  0  0  0  0  0  0  0
  157.5016  156.5961  115.8939 N   0  0  0  0  0  0  0  0  0  0  0  0
  157.5605  155.6070  114.4840 S   0  0  0  0  0  6  0  0  0  0  0  0
  156.0952  154.6263  114.4428 C   0  0  0  0  0  0  0  0  0  0  0  0
  157.5726  156.5042  113.2857 O   0  0  0  0  0  0  0  0  0  0  0  0
  158.7962  154.7650  114.4425 O   0  0  0  0  0  0  0  0  0  0  0  0
  2  1  1  6
  2  3  1  0
  3  4  1  6
  4  5  1  0
  5  6  1  0
  6  7  1  1
  6  8  1  0
  9  8  1  1
  9 10  1  0
 10 11  1  0
 11 12  1  6
 12 13  1  0
 14 13  1  1
 14 15  1  0
 15 16  1  6
 16 17  1  0
 18 17  1  6
 18 19  1  0
 19 20  1  0
 20 21  1  0
 21 22  1  0
 22 23  1  0
 23 24  1  1
 23 25  1  0
 25 26  1  1
 26 27  1  0
 27 28  2  0
 28 29  1  0
 28 30  1  0
 20 31  1  6
 31 32  1  0
 32 33  1  0
 32 34  2  0
 32 35  2  0
 11  2  1  0
 30 11  1  0
  9  3  1  0
 27 14  1  0
 25 15  1  0
 23 18  1  0
M  END
$$$$
