
     RDKit          3D

 35 40  0  0  0  0  0  0  0  0999 V2000
  147.7527  168.4984  136.2321 C   0  0  0  0  0  0  0  0  0  0  0  0
  146.5773  168.8904  135.3585 C   0  0  2  0  0  0  0  0  0  0  0  0
  145.5656  169.5409  136.2619 C   0  0  2  0  0  0  0  0  0  0  0  0
  146.1135  170.3586  137.2935 N   0  0  0  0  0  0  0  0  0  0  0  0
  145.0316  170.8798  138.0773 C   0  0  0  0  0  0  0  0  0  0  0  0
  144.0025  169.9315  138.5106 C   0  0  1  0  0  0  0  0  0  0  0  0
  142.6646  170.6426  138.5943 C   0  0  0  0  0  0  0  0  0  0  0  0
  143.8114  168.7061  137.6763 C   0  0  0  0  0  0  0  0  0  0  0  0
  145.0577  168.2795  136.9825 C   0  0  1  0  0  0  0  0  0  0  0  0
  144.9280  167.3576  136.0010 O   0  0  0  0  0  0  0  0  0  0  0  0
  145.7590  167.6690  134.9250 C   0  0  2  0  0  0  0  0  0  0  0  0
  146.6639  166.5346  134.6082 C   0  0  0  0  0  0  0  0  0  0  0  0
  146.6655  166.1138  133.1532 C   0  0  0  0  0  0  0  0  0  0  0  0
  147.5170  167.1266  132.4178 C   0  0  1  0  0  0  0  0  0  0  0  0
  148.0283  166.6498  131.1044 C   0  0  2  0  0  0  0  0  0  0  0  0
  149.3801  165.9790  131.1688 C   0  0  0  0  0  0  0  0  0  0  0  0
  150.0632  166.1894  129.8308 C   0  0  0  0  0  0  0  0  0  0  0  0
  149.0615  166.3336  128.7075 C   0  0  2  0  0  0  0  0  0  0  0  0
  149.8373  166.3648  127.4078 C   0  0  0  0  0  0  0  0  0  0  0  0
  148.9835  166.9238  126.2756 C   0  0  1  0  0  0  0  0  0  0  0  0
  148.6031  168.3428  126.5486 C   0  0  0  0  0  0  0  0  0  0  0  0
  148.7055  168.7108  128.0094 C   0  0  0  0  0  0  0  0  0  0  0  0
  148.2038  167.5844  128.8771 C   0  0  1  0  0  0  0  0  0  0  0  0
  146.8046  167.2179  128.5041 C   0  0  0  0  0  0  0  0  0  0  0  0
  148.2476  167.9536  130.3242 C   0  0  1  0  0  0  0  0  0  0  0  0
  147.2109  168.9083  130.7780 C   0  0  0  0  0  0  0  0  0  0  0  0
  146.6223  168.2623  132.0090 C   0  0  0  0  0  0  0  0  0  0  0  0
  145.5048  168.6344  132.6221 C   0  0  0  0  0  0  0  0  0  0  0  0
  144.8483  169.8028  131.9629 C   0  0  0  0  0  0  0  0  0  0  0  0
  144.8444  168.0873  133.8043 C   0  0  0  0  0  0  0  0  0  0  0  0
  149.7487  166.8264  125.0672 N   0  0  0  0  0  0  0  0  0  0  0  0
  151.0446  167.9608  125.0090 S   0  0  0  0  0  6  0  0  0  0  0  0
  150.4224  169.4671  124.3348 C   0  0  0  0  0  0  0  0  0  0  0  0
  151.5046  168.2151  126.4106 O   0  0  0  0  0  0  0  0  0  0  0  0
  152.2095  167.4399  124.2283 O   0  0  0  0  0  0  0  0  0  0  0  0
  2  1  1  1
  2  3  1  0
  3  4  1  1
  4  5  1  0
  5  6  1  0
  6  7  1  6
  6  8  1  0
  9  8  1  6
  9 10  1  0
 10 11  1  0
 11 12  1  6
 12 13  1  0
 14 13  1  6
 14 15  1  0
 15 16  1  1
 16 17  1  0
 18 17  1  1
 18 19  1  0
 19 20  1  0
 20 21  1  0
 21 22  1  0
 22 23  1  0
 23 24  1  6
 23 25  1  0
 25 26  1  6
 26 27  1  0
 27 28  2  0
 28 29  1  0
 28 30  1  0
 20 31  1  6
 31 32  1  0
 32 33  1  0
 32 34  2  0
 32 35  2  0
 11  2  1  0
 30 11  1  0
  9  3  1  0
 27 14  1  0
 25 15  1  0
 23 18  1  0
M  END
$$$$
