
     RDKit          3D

 35 40  0  0  0  0  0  0  0  0999 V2000
  150.8206  178.8366  156.3401 C   0  0  0  0  0  0  0  0  0  0  0  0
  149.4365  178.6482  155.7510 C   0  0  2  0  0  0  0  0  0  0  0  0
  148.4864  179.4212  156.6243 C   0  0  2  0  0  0  0  0  0  0  0  0
  148.9917  180.6589  157.1200 N   0  0  0  0  0  0  0  0  0  0  0  0
  147.9858  181.2561  157.9494 C   0  0  0  0  0  0  0  0  0  0  0  0
  147.3458  180.3965  158.9482 C   0  0  1  0  0  0  0  0  0  0  0  0
  145.9115  180.8461  159.1559 C   0  0  0  0  0  0  0  0  0  0  0  0
  147.3230  178.9284  158.6684 C   0  0  0  0  0  0  0  0  0  0  0  0
  148.4772  178.4798  157.8418 C   0  0  1  0  0  0  0  0  0  0  0  0
  148.4042  177.2383  157.3095 O   0  0  0  0  0  0  0  0  0  0  0  0
  148.8980  177.2358  156.0052 C   0  0  2  0  0  0  0  0  0  0  0  0
  149.9884  176.2388  155.8529 C   0  0  0  0  0  0  0  0  0  0  0  0
  149.8159  175.2855  154.6886 C   0  0  0  0  0  0  0  0  0  0  0  0
  150.2121  176.0543  153.4463 C   0  0  1  0  0  0  0  0  0  0  0  0
  150.5637  175.1922  152.2856 C   0  0  2  0  0  0  0  0  0  0  0  0
  152.0295  174.8397  152.1933 C   0  0  0  0  0  0  0  0  0  0  0  0
  152.3588  174.6178  150.7293 C   0  0  0  0  0  0  0  0  0  0  0  0
  151.1549  174.1363  149.9515 C   0  0  2  0  0  0  0  0  0  0  0  0
  151.6263  173.7831  148.5568 C   0  0  0  0  0  0  0  0  0  0  0  0
  150.4519  173.6979  147.5889 C   0  0  1  0  0  0  0  0  0  0  0  0
  149.7743  175.0233  147.4586 C   0  0  0  0  0  0  0  0  0  0  0  0
  150.0600  175.9488  148.6169 C   0  0  0  0  0  0  0  0  0  0  0  0
  150.0500  175.1884  149.9189 C   0  0  1  0  0  0  0  0  0  0  0  0
  148.7507  174.4742  150.0995 C   0  0  0  0  0  0  0  0  0  0  0  0
  150.2774  176.0996  151.0810 C   0  0  1  0  0  0  0  0  0  0  0  0
  149.1362  176.9661  151.4542 C   0  0  0  0  0  0  0  0  0  0  0  0
  148.9894  176.7682  152.9436 C   0  0  0  0  0  0  0  0  0  0  0  0
  147.9555  177.1575  153.6803 C   0  0  0  0  0  0  0  0  0  0  0  0
  146.9004  177.8425  152.8751 C   0  0  0  0  0  0  0  0  0  0  0  0
  147.7053  177.0176  155.1124 C   0  0  0  0  0  0  0  0  0  0  0  0
  150.9647  173.2629  146.3228 N   0  0  0  0  0  0  0  0  0  0  0  0
  152.2395  172.1143  146.4822 S   0  0  0  0  0  6  0  0  0  0  0  0
  152.9551  172.3106  148.0822 C   0  0  0  0  0  0  0  0  0  0  0  0
  151.6461  170.7434  146.3857 O   0  0  0  0  0  0  0  0  0  0  0  0
  153.2576  172.2541  145.3952 O   0  0  0  0  0  0  0  0  0  0  0  0
  2  1  1  1
  2  3  1  0
  3  4  1  1
  4  5  1  0
  5  6  1  0
  6  7  1  6
  6  8  1  0
  9  8  1  1
  9 10  1  0
 10 11  1  0
 11 12  1  1
 12 13  1  0
 14 13  1  1
 14 15  1  0
 15 16  1  1
 16 17  1  0
 18 17  1  1
 18 19  1  0
 19 20  1  0
 20 21  1  0
 21 22  1  0
 22 23  1  0
 23 24  1  1
 23 25  1  0
 25 26  1  1
 26 27  1  0
 27 28  2  0
 28 29  1  0
 28 30  1  0
 20 31  1  6
 31 32  1  0
 32 33  1  0
 32 34  2  0
 32 35  2  0
 11  2  1  0
 30 11  1  0
  9  3  1  0
 27 14  1  0
 25 15  1  0
 23 18  1  0
M  END
$$$$
