
     RDKit          3D

 35 40  0  0  0  0  0  0  0  0999 V2000
  202.3821  129.6964  132.5193 C   0  0  0  0  0  0  0  0  0  0  0  0
  203.7726  130.2987  132.4736 C   0  0  2  0  0  0  0  0  0  0  0  0
  204.7373  129.1502  132.3585 C   0  0  2  0  0  0  0  0  0  0  0  0
  204.2972  128.0708  131.5376 N   0  0  0  0  0  0  0  0  0  0  0  0
  205.3075  127.0531  131.5519 C   0  0  0  0  0  0  0  0  0  0  0  0
  205.8483  126.6664  132.8572 C   0  0  1  0  0  0  0  0  0  0  0  0
  207.3003  126.2547  132.6996 C   0  0  0  0  0  0  0  0  0  0  0  0
  205.7834  127.6845  133.9497 C   0  0  0  0  0  0  0  0  0  0  0  0
  204.6353  128.6203  133.7997 C   0  0  1  0  0  0  0  0  0  0  0  0
  204.6456  129.7317  134.5709 O   0  0  0  0  0  0  0  0  0  0  0  0
  204.2046  130.8363  133.8424 C   0  0  2  0  0  0  0  0  0  0  0  0
  203.0565  131.4931  134.5182 C   0  0  0  0  0  0  0  0  0  0  0  0
  203.2103  132.9865  134.7185 C   0  0  0  0  0  0  0  0  0  0  0  0
  202.9160  133.6284  133.3795 C   0  0  1  0  0  0  0  0  0  0  0  0
  202.5533  135.0690  133.4638 C   0  0  2  0  0  0  0  0  0  0  0  0
  201.0719  135.3313  133.5982 C   0  0  0  0  0  0  0  0  0  0  0  0
  200.7864  136.6881  132.9831 C   0  0  0  0  0  0  0  0  0  0  0  0
  201.9850  137.6057  133.0705 C   0  0  2  0  0  0  0  0  0  0  0  0
  201.5463  138.9733  132.5918 C   0  0  0  0  0  0  0  0  0  0  0  0
  202.7495  139.8410  132.2416 C   0  0  1  0  0  0  0  0  0  0  0  0
  203.5193  139.2477  131.1065 C   0  0  0  0  0  0  0  0  0  0  0  0
  203.2510  137.7738  130.9178 C   0  0  0  0  0  0  0  0  0  0  0  0
  203.1584  137.0761  132.2513 C   0  0  1  0  0  0  0  0  0  0  0  0
  204.3988  137.3063  133.0511 C   0  0  0  0  0  0  0  0  0  0  0  0
  202.9472  135.6068  132.0810 C   0  0  1  0  0  0  0  0  0  0  0  0
  204.1284  134.8325  131.6366 C   0  0  0  0  0  0  0  0  0  0  0  0
  204.2028  133.6770  132.6054 C   0  0  0  0  0  0  0  0  0  0  0  0
  205.2306  132.8486  132.7483 C   0  0  0  0  0  0  0  0  0  0  0  0
  206.3603  133.1684  131.8250 C   0  0  0  0  0  0  0  0  0  0  0  0
  205.4142  131.7112  133.6457 C   0  0  0  0  0  0  0  0  0  0  0  0
  202.2590  141.1432  131.8970 N   0  0  0  0  0  0  0  0  0  0  0  0
  201.9416  141.3084  130.2113 S   0  0  0  0  0  6  0  0  0  0  0  0
  200.4415  140.4535  129.8513 C   0  0  0  0  0  0  0  0  0  0  0  0
  201.7496  142.7628  129.9137 O   0  0  0  0  0  0  0  0  0  0  0  0
  203.0798  140.8128  129.3766 O   0  0  0  0  0  0  0  0  0  0  0  0
  2  1  1  1
  2  3  1  0
  3  4  1  6
  4  5  1  0
  5  6  1  0
  6  7  1  6
  6  8  1  0
  9  8  1  1
  9 10  1  0
 10 11  1  0
 11 12  1  1
 12 13  1  0
 14 13  1  1
 14 15  1  0
 15 16  1  6
 16 17  1  0
 18 17  1  6
 18 19  1  0
 19 20  1  0
 20 21  1  0
 21 22  1  0
 22 23  1  0
 23 24  1  1
 23 25  1  0
 25 26  1  1
 26 27  1  0
 27 28  2  0
 28 29  1  0
 28 30  1  0
 20 31  1  6
 31 32  1  0
 32 33  1  0
 32 34  2  0
 32 35  2  0
 11  2  1  0
 30 11  1  0
  9  3  1  0
 27 14  1  0
 25 15  1  0
 23 18  1  0
M  END
$$$$
