
     RDKit          3D

 35 40  0  0  0  0  0  0  0  0999 V2000
  127.6103  148.8783  136.7156 C   0  0  0  0  0  0  0  0  0  0  0  0
  127.8353  148.9387  135.2176 C   0  0  2  0  0  0  0  0  0  0  0  0
  127.7717  150.3907  134.8294 C   0  0  2  0  0  0  0  0  0  0  0  0
  128.3484  151.2938  135.7699 N   0  0  0  0  0  0  0  0  0  0  0  0
  128.1853  152.6283  135.2710 C   0  0  0  0  0  0  0  0  0  0  0  0
  126.8564  153.0006  134.7798 C   0  0  1  0  0  0  0  0  0  0  0  0
  126.9987  154.0089  133.6548 C   0  0  0  0  0  0  0  0  0  0  0  0
  125.9784  151.8956  134.2876 C   0  0  0  0  0  0  0  0  0  0  0  0
  126.2523  150.5965  134.9613 C   0  0  1  0  0  0  0  0  0  0  0  0
  125.7107  149.4900  134.4025 O   0  0  0  0  0  0  0  0  0  0  0  0
  126.6169  148.4304  134.4389 C   0  0  2  0  0  0  0  0  0  0  0  0
  126.0278  147.2522  135.1251 C   0  0  0  0  0  0  0  0  0  0  0  0
  126.1259  145.9544  134.3504 C   0  0  0  0  0  0  0  0  0  0  0  0
  127.5483  145.4645  134.5184 C   0  0  1  0  0  0  0  0  0  0  0  0
  127.7260  144.0124  134.2466 C   0  0  2  0  0  0  0  0  0  0  0  0
  127.5762  143.1285  135.4622 C   0  0  0  0  0  0  0  0  0  0  0  0
  128.4270  141.8923  135.2408 C   0  0  0  0  0  0  0  0  0  0  0  0
  128.5733  141.5694  133.7710 C   0  0  2  0  0  0  0  0  0  0  0  0
  129.2854  140.2374  133.6669 C   0  0  0  0  0  0  0  0  0  0  0  0
  129.8512  140.0288  132.2671 C   0  0  1  0  0  0  0  0  0  0  0  0
  130.8852  141.0609  131.9533 C   0  0  0  0  0  0  0  0  0  0  0  0
  130.7743  142.2908  132.8221 C   0  0  0  0  0  0  0  0  0  0  0  0
  129.3287  142.6671  133.0274 C   0  0  1  0  0  0  0  0  0  0  0  0
  128.6463  142.8646  131.7134 C   0  0  0  0  0  0  0  0  0  0  0  0
  129.2031  143.9144  133.8404 C   0  0  1  0  0  0  0  0  0  0  0  0
  129.5444  145.1756  133.1439 C   0  0  0  0  0  0  0  0  0  0  0  0
  128.3759  146.0876  133.4303 C   0  0  0  0  0  0  0  0  0  0  0  0
  128.1239  147.2409  132.8223 C   0  0  0  0  0  0  0  0  0  0  0  0
  129.1427  147.5785  131.7836 C   0  0  0  0  0  0  0  0  0  0  0  0
  127.0340  148.1943  133.0114 C   0  0  0  0  0  0  0  0  0  0  0  0
  130.4168  138.7123  132.2202 N   0  0  0  0  0  0  0  0  0  0  0  0
  130.9922  138.1820  133.7555 S   0  0  0  0  0  6  0  0  0  0  0  0
  129.8429  138.7135  134.9832 C   0  0  0  0  0  0  0  0  0  0  0  0
  131.0298  136.6856  133.7474 O   0  0  0  0  0  0  0  0  0  0  0  0
  132.3758  138.6769  134.0357 O   0  0  0  0  0  0  0  0  0  0  0  0
  2  1  1  1
  2  3  1  0
  3  4  1  1
  4  5  1  0
  5  6  1  0
  6  7  1  6
  6  8  1  0
  9  8  1  6
  9 10  1  0
 10 11  1  0
 11 12  1  1
 12 13  1  0
 14 13  1  6
 14 15  1  0
 15 16  1  1
 16 17  1  0
 18 17  1  1
 18 19  1  0
 19 20  1  0
 20 21  1  0
 21 22  1  0
 22 23  1  0
 23 24  1  6
 23 25  1  0
 25 26  1  6
 26 27  1  0
 27 28  2  0
 28 29  1  0
 28 30  1  0
 20 31  1  1
 31 32  1  0
 32 33  1  0
 32 34  2  0
 32 35  2  0
 11  2  1  0
 30 11  1  0
  9  3  1  0
 27 14  1  0
 25 15  1  0
 23 18  1  0
M  END
$$$$
