
     RDKit          3D

 35 40  0  0  0  0  0  0  0  0999 V2000
  175.7749  167.4650  108.6943 C   0  0  0  0  0  0  0  0  0  0  0  0
  175.6105  166.8857  110.0856 C   0  0  2  0  0  0  0  0  0  0  0  0
  176.7578  167.4052  110.9082 C   0  0  2  0  0  0  0  0  0  0  0  0
  177.1376  168.7518  110.6337 N   0  0  0  0  0  0  0  0  0  0  0  0
  178.2515  169.0855  111.4729 C   0  0  0  0  0  0  0  0  0  0  0  0
  179.3550  168.1239  111.5330 C   0  0  1  0  0  0  0  0  0  0  0  0
  179.9945  168.1753  112.9081 C   0  0  0  0  0  0  0  0  0  0  0  0
  179.0294  166.6949  111.2394 C   0  0  0  0  0  0  0  0  0  0  0  0
  177.8812  166.5445  110.3037 C   0  0  1  0  0  0  0  0  0  0  0  0
  177.3393  165.3101  110.1917 O   0  0  0  0  0  0  0  0  0  0  0  0
  175.9487  165.3911  110.1225 C   0  0  2  0  0  0  0  0  0  0  0  0
  175.4388  164.7220  108.8984 C   0  0  0  0  0  0  0  0  0  0  0  0
  174.3354  163.7134  109.1416 C   0  0  0  0  0  0  0  0  0  0  0  0
  173.0669  164.5122  109.3522 C   0  0  1  0  0  0  0  0  0  0  0  0
  171.8171  163.7335  109.1387 C   0  0  2  0  0  0  0  0  0  0  0  0
  171.2828  163.7884  107.7270 C   0  0  0  0  0  0  0  0  0  0  0  0
  169.7783  163.6076  107.7963 C   0  0  0  0  0  0  0  0  0  0  0  0
  169.3678  162.7880  108.9986 C   0  0  2  0  0  0  0  0  0  0  0  0
  167.8819  162.5222  108.8819 C   0  0  0  0  0  0  0  0  0  0  0  0
  167.2988  162.0843  110.2203 C   0  0  1  0  0  0  0  0  0  0  0  0
  167.4322  163.1702  111.2381 C   0  0  0  0  0  0  0  0  0  0  0  0
  168.4955  164.1825  110.8853 C   0  0  0  0  0  0  0  0  0  0  0  0
  169.7079  163.4989  110.3054 C   0  0  1  0  0  0  0  0  0  0  0  0
  170.2302  162.4666  111.2502 C   0  0  0  0  0  0  0  0  0  0  0  0
  170.7912  164.4819  110.0012 C   0  0  1  0  0  0  0  0  0  0  0  0
  171.5211  165.0202  111.1715 C   0  0  0  0  0  0  0  0  0  0  0  0
  172.9777  164.8477  110.8140 C   0  0  0  0  0  0  0  0  0  0  0  0
  174.0021  164.9702  111.6500 C   0  0  0  0  0  0  0  0  0  0  0  0
  173.5734  165.3117  113.0394 C   0  0  0  0  0  0  0  0  0  0  0  0
  175.4367  164.8233  111.4198 C   0  0  0  0  0  0  0  0  0  0  0  0
  165.9199  161.7560  110.0055 N   0  0  0  0  0  0  0  0  0  0  0  0
  165.6121  161.1980  108.4044 S   0  0  0  0  0  6  0  0  0  0  0  0
  163.9344  161.5711  108.0088 C   0  0  0  0  0  0  0  0  0  0  0  0
  166.5058  161.9508  107.4688 O   0  0  0  0  0  0  0  0  0  0  0  0
  165.9095  159.7397  108.2534 O   0  0  0  0  0  0  0  0  0  0  0  0
  2  1  1  6
  2  3  1  0
  3  4  1  6
  4  5  1  0
  5  6  1  0
  6  7  1  1
  6  8  1  0
  9  8  1  1
  9 10  1  0
 10 11  1  0
 11 12  1  6
 12 13  1  0
 14 13  1  1
 14 15  1  0
 15 16  1  6
 16 17  1  0
 18 17  1  6
 18 19  1  0
 19 20  1  0
 20 21  1  0
 21 22  1  0
 22 23  1  0
 23 24  1  1
 23 25  1  0
 25 26  1  1
 26 27  1  0
 27 28  2  0
 28 29  1  0
 28 30  1  0
 20 31  1  6
 31 32  1  0
 32 33  1  0
 32 34  2  0
 32 35  2  0
 11  2  1  0
 30 11  1  0
  9  3  1  0
 27 14  1  0
 25 15  1  0
 23 18  1  0
M  END
$$$$
