
     RDKit          3D

 35 40  0  0  0  0  0  0  0  0999 V2000
  174.8406  165.1678  113.4025 C   0  0  0  0  0  0  0  0  0  0  0  0
  174.1796  163.8251  113.6450 C   0  0  2  0  0  0  0  0  0  0  0  0
  174.8651  163.2151  114.8369 C   0  0  2  0  0  0  0  0  0  0  0  0
  175.2246  164.1358  115.8645 N   0  0  0  0  0  0  0  0  0  0  0  0
  175.8865  163.4093  116.9088 C   0  0  0  0  0  0  0  0  0  0  0  0
  176.9416  162.4753  116.5083 C   0  0  1  0  0  0  0  0  0  0  0  0
  176.9770  161.3085  117.4777 C   0  0  0  0  0  0  0  0  0  0  0  0
  176.8633  161.9119  115.1260 C   0  0  0  0  0  0  0  0  0  0  0  0
  176.1951  162.8314  114.1644 C   0  0  1  0  0  0  0  0  0  0  0  0
  175.8328  162.3109  112.9695 O   0  0  0  0  0  0  0  0  0  0  0  0
  174.5820  162.7937  112.5850 C   0  0  2  0  0  0  0  0  0  0  0  0
  174.6498  163.4362  111.2476 C   0  0  0  0  0  0  0  0  0  0  0  0
  173.6164  162.9435  110.2559 C   0  0  0  0  0  0  0  0  0  0  0  0
  172.3146  163.6222  110.6247 C   0  0  1  0  0  0  0  0  0  0  0  0
  171.3120  163.6496  109.5256 C   0  0  2  0  0  0  0  0  0  0  0  0
  171.3797  164.8795  108.6516 C   0  0  0  0  0  0  0  0  0  0  0  0
  169.9886  165.1310  108.1013 C   0  0  0  0  0  0  0  0  0  0  0  0
  169.1948  163.8500  107.9797 C   0  0  2  0  0  0  0  0  0  0  0  0
  167.9008  164.1828  107.2677 C   0  0  0  0  0  0  0  0  0  0  0  0
  166.8674  163.0808  107.4697 C   0  0  1  0  0  0  0  0  0  0  0  0
  166.5071  162.9493  108.9139 C   0  0  0  0  0  0  0  0  0  0  0  0
  167.5470  163.5368  109.8376 C   0  0  0  0  0  0  0  0  0  0  0  0
  168.9358  163.2183  109.3445 C   0  0  1  0  0  0  0  0  0  0  0  0
  169.1131  161.7430  109.1923 C   0  0  0  0  0  0  0  0  0  0  0  0
  169.9769  163.7463  110.2771 C   0  0  1  0  0  0  0  0  0  0  0  0
  170.1413  163.0037  111.5475 C   0  0  0  0  0  0  0  0  0  0  0  0
  171.6284  162.7643  111.6497 C   0  0  0  0  0  0  0  0  0  0  0  0
  172.2249  161.9360  112.4989 C   0  0  0  0  0  0  0  0  0  0  0  0
  171.2564  161.2287  113.3892 C   0  0  0  0  0  0  0  0  0  0  0  0
  173.6395  161.6236  112.6833 C   0  0  0  0  0  0  0  0  0  0  0  0
  165.7148  163.4191  106.6873 N   0  0  0  0  0  0  0  0  0  0  0  0
  164.6329  164.4709  107.5196 S   0  0  0  0  0  6  0  0  0  0  0  0
  165.5554  165.3508  108.7383 C   0  0  0  0  0  0  0  0  0  0  0  0
  164.0838  165.4516  106.5310 O   0  0  0  0  0  0  0  0  0  0  0  0
  163.4819  163.7279  108.1206 O   0  0  0  0  0  0  0  0  0  0  0  0
  2  1  1  6
  2  3  1  0
  3  4  1  1
  4  5  1  0
  5  6  1  0
  6  7  1  1
  6  8  1  0
  9  8  1  1
  9 10  1  0
 10 11  1  0
 11 12  1  6
 12 13  1  0
 14 13  1  6
 14 15  1  0
 15 16  1  6
 16 17  1  0
 18 17  1  1
 18 19  1  0
 19 20  1  0
 20 21  1  0
 21 22  1  0
 22 23  1  0
 23 24  1  6
 23 25  1  0
 25 26  1  1
 26 27  1  0
 27 28  2  0
 28 29  1  0
 28 30  1  0
 20 31  1  6
 31 32  1  0
 32 33  1  0
 32 34  2  0
 32 35  2  0
 11  2  1  0
 30 11  1  0
  9  3  1  0
 27 14  1  0
 25 15  1  0
 23 18  1  0
M  END
$$$$
