
     RDKit          3D

 35 40  0  0  0  0  0  0  0  0999 V2000
  154.3724  146.7213  121.4296 C   0  0  0  0  0  0  0  0  0  0  0  0
  154.3628  147.1142  122.8937 C   0  0  2  0  0  0  0  0  0  0  0  0
  152.9192  147.2336  123.2995 C   0  0  2  0  0  0  0  0  0  0  0  0
  152.0455  146.2697  122.7162 N   0  0  0  0  0  0  0  0  0  0  0  0
  150.7132  146.5322  123.1774 C   0  0  0  0  0  0  0  0  0  0  0  0
  150.2455  147.9191  123.1159 C   0  0  1  0  0  0  0  0  0  0  0  0
  149.2766  148.1756  124.2551 C   0  0  0  0  0  0  0  0  0  0  0  0
  151.2864  148.9909  123.1580 C   0  0  0  0  0  0  0  0  0  0  0  0
  152.5885  148.5547  122.5829 C   0  0  1  0  0  0  0  0  0  0  0  0
  153.6595  149.3464  122.8203 O   0  0  0  0  0  0  0  0  0  0  0  0
  154.7878  148.5733  123.0934 C   0  0  2  0  0  0  0  0  0  0  0  0
  155.8994  148.9123  122.1685 C   0  0  0  0  0  0  0  0  0  0  0  0
  157.2173  149.2190  122.8489 C   0  0  0  0  0  0  0  0  0  0  0  0
  157.8168  147.8844  123.2375 C   0  0  1  0  0  0  0  0  0  0  0  0
  159.2841  147.9262  123.4814 C   0  0  2  0  0  0  0  0  0  0  0  0
  160.1264  147.6319  122.2627 C   0  0  0  0  0  0  0  0  0  0  0  0
  161.4318  147.0246  122.7405 C   0  0  0  0  0  0  0  0  0  0  0  0
  161.7973  147.5032  124.1273 C   0  0  2  0  0  0  0  0  0  0  0  0
  163.1844  146.9817  124.4374 C   0  0  0  0  0  0  0  0  0  0  0  0
  163.4682  147.0415  125.9337 C   0  0  1  0  0  0  0  0  0  0  0  0
  162.5302  146.1560  126.6877 C   0  0  0  0  0  0  0  0  0  0  0  0
  161.2767  145.8276  125.9124 C   0  0  0  0  0  0  0  0  0  0  0  0
  160.7805  147.0407  125.1670 C   0  0  1  0  0  0  0  0  0  0  0  0
  160.5571  148.1794  126.1075 C   0  0  0  0  0  0  0  0  0  0  0  0
  159.5098  146.7470  124.4378 C   0  0  1  0  0  0  0  0  0  0  0  0
  158.2957  146.6330  125.2776 C   0  0  0  0  0  0  0  0  0  0  0  0
  157.2863  147.5254  124.5965 C   0  0  0  0  0  0  0  0  0  0  0  0
  156.1299  147.9247  125.1127 C   0  0  0  0  0  0  0  0  0  0  0  0
  155.8982  147.3900  126.4879 C   0  0  0  0  0  0  0  0  0  0  0  0
  155.0876  148.7818  124.5542 C   0  0  0  0  0  0  0  0  0  0  0  0
  164.8268  146.6298  126.1337 N   0  0  0  0  0  0  0  0  0  0  0  0
  165.0618  144.9490  125.8351 S   0  0  0  0  0  6  0  0  0  0  0  0
  163.7933  144.4065  124.7364 C   0  0  0  0  0  0  0  0  0  0  0  0
  166.3875  144.7763  125.1616 O   0  0  0  0  0  0  0  0  0  0  0  0
  165.0804  144.1531  127.1015 O   0  0  0  0  0  0  0  0  0  0  0  0
  2  1  1  6
  2  3  1  0
  3  4  1  6
  4  5  1  0
  5  6  1  0
  6  7  1  1
  6  8  1  0
  9  8  1  1
  9 10  1  0
 10 11  1  0
 11 12  1  6
 12 13  1  0
 14 13  1  1
 14 15  1  0
 15 16  1  6
 16 17  1  0
 18 17  1  6
 18 19  1  0
 19 20  1  0
 20 21  1  0
 21 22  1  0
 22 23  1  0
 23 24  1  1
 23 25  1  0
 25 26  1  1
 26 27  1  0
 27 28  2  0
 28 29  1  0
 28 30  1  0
 20 31  1  6
 31 32  1  0
 32 33  1  0
 32 34  2  0
 32 35  2  0
 11  2  1  0
 30 11  1  0
  9  3  1  0
 27 14  1  0
 25 15  1  0
 23 18  1  0
M  END
$$$$
