
     RDKit          3D

 38 43  0  0  0  0  0  0  0  0999 V2000
  192.7920  162.3762  132.6033 C   0  0  1  0  0  0  0  0  0  0  0  0
  193.7313  161.2236  132.7125 C   0  0  0  0  0  0  0  0  0  0  0  0
  193.2745  160.3105  131.5631 C   0  0  0  0  0  0  0  0  0  0  0  0
  191.7874  160.4046  131.7215 C   0  0  2  0  0  0  0  0  0  0  0  0
  191.4723  159.6718  132.8885 O   0  0  0  0  0  0  0  0  0  0  0  0
  191.0008  159.7864  130.6022 C   0  0  2  0  0  0  0  0  0  0  0  0
  191.3241  158.3213  130.4853 C   0  0  0  0  0  0  0  0  0  0  0  0
  190.7509  157.6640  129.2774 C   0  0  0  0  0  0  0  0  0  0  0  0
  190.8042  158.5452  128.0731 C   0  0  0  0  0  0  0  0  0  0  0  0
  191.2104  157.9883  126.9372 C   0  0  0  0  0  0  0  0  0  0  0  0
  191.3098  158.7522  125.6631 C   0  0  2  0  0  0  0  0  0  0  0  0
  190.4737  160.0082  125.7169 C   0  0  0  0  0  0  0  0  0  0  0  0
  190.8369  160.7622  126.9560 C   0  0  0  0  0  0  0  0  0  0  0  0
  190.4108  159.9726  128.1868 C   0  0  1  0  0  0  0  0  0  0  0  0
  188.9118  160.1358  128.3017 C   0  0  0  0  0  0  0  0  0  0  0  0
  191.1456  160.5723  129.3508 C   0  0  1  0  0  0  0  0  0  0  0  0
  190.5923  161.9619  129.6166 C   0  0  0  0  0  0  0  0  0  0  0  0
  191.2421  162.6604  130.7449 C   0  0  0  0  0  0  0  0  0  0  0  0
  191.5016  161.8312  131.9711 C   0  0  2  0  0  0  0  0  0  0  0  0
  190.3482  161.9245  132.9618 C   0  0  0  0  0  0  0  0  0  0  0  0
  190.9111  157.9258  124.6359 O   0  0  0  0  0  0  0  0  0  0  0  0
  191.2703  158.3757  123.3738 C   0  0  2  0  0  0  0  0  0  0  0  0
  190.4783  159.4759  123.0758 O   0  0  0  0  0  0  0  0  0  0  0  0
  190.6952  159.9705  121.8084 C   0  0  1  0  0  0  0  0  0  0  0  0
  192.1018  160.4118  121.5498 C   0  0  0  0  0  0  0  0  0  0  0  0
  190.2058  158.9474  120.8127 C   0  0  2  0  0  0  0  0  0  0  0  0
  188.8373  158.7868  121.0345 O   0  0  0  0  0  0  0  0  0  0  0  0
  190.9151  157.6443  120.9926 C   0  0  1  0  0  0  0  0  0  0  0  0
  192.1048  157.6155  120.2476 O   0  0  0  0  0  0  0  0  0  0  0  0
  191.1229  157.2419  122.4149 C   0  0  1  0  0  0  0  0  0  0  0  0
  192.2822  156.4629  122.4913 O   0  0  0  0  0  0  0  0  0  0  0  0
  192.5678  163.0636  133.8748 C   0  0  0  0  0  0  0  0  0  0  0  0
  192.8916  162.4401  135.0568 C   0  0  0  0  0  0  0  0  0  0  0  0
  192.7029  163.0213  136.2417 O   0  0  0  0  0  0  0  0  0  0  0  0
  192.2001  164.2156  136.3463 C   0  0  0  0  0  0  0  0  0  0  0  0
  192.0479  164.7062  137.4944 O   0  0  0  0  0  0  0  0  0  0  0  0
  191.8592  164.8835  135.1948 C   0  0  0  0  0  0  0  0  0  0  0  0
  192.0315  164.3329  133.9433 C   0  0  0  0  0  0  0  0  0  0  0  0
  1  2  1  0
  2  3  1  0
  3  4  1  0
  4  5  1  1
  4  6  1  0
  6  7  1  6
  7  8  1  0
  8  9  1  0
  9 10  2  0
 10 11  1  0
 11 12  1  0
 12 13  1  0
 13 14  1  0
 14 15  1  1
 14 16  1  0
 16 17  1  1
 17 18  1  0
 18 19  1  0
 19 20  1  1
 11 21  1  6
 22 21  1  1
 22 23  1  0
 23 24  1  0
 24 25  1  6
 24 26  1  0
 26 27  1  1
 26 28  1  0
 28 29  1  1
 28 30  1  0
 30 31  1  6
  1 32  1  1
 32 33  2  0
 33 34  1  0
 34 35  1  0
 35 36  2  0
 35 37  1  0
 37 38  2  0
 19  1  1  0
 30 22  1  0
 38 32  1  0
 19  4  1  0
 16  6  1  0
 14  9  1  0
M  END
$$$$
