
     RDKit          3D

 38 43  0  0  0  0  0  0  0  0999 V2000
  128.4725  146.9552  134.9830 C   0  0  1  0  0  0  0  0  0  0  0  0
  128.7044  146.4411  136.3631 C   0  0  0  0  0  0  0  0  0  0  0  0
  128.7213  144.9181  136.1537 C   0  0  0  0  0  0  0  0  0  0  0  0
  127.5653  144.7647  135.2125 C   0  0  2  0  0  0  0  0  0  0  0  0
  126.4022  144.9928  135.9829 O   0  0  0  0  0  0  0  0  0  0  0  0
  127.4231  143.3935  134.6181 C   0  0  2  0  0  0  0  0  0  0  0  0
  127.2247  142.3722  135.7054 C   0  0  0  0  0  0  0  0  0  0  0  0
  127.2778  140.9599  135.2337 C   0  0  0  0  0  0  0  0  0  0  0  0
  128.3207  140.7509  134.1857 C   0  0  0  0  0  0  0  0  0  0  0  0
  129.0885  139.6734  134.3070 C   0  0  0  0  0  0  0  0  0  0  0  0
  130.1656  139.3455  133.3327 C   0  0  2  0  0  0  0  0  0  0  0  0
  129.9506  140.0660  132.0235 C   0  0  0  0  0  0  0  0  0  0  0  0
  129.7579  141.5202  132.3130 C   0  0  0  0  0  0  0  0  0  0  0  0
  128.4563  141.7286  133.0762 C   0  0  1  0  0  0  0  0  0  0  0  0
  127.3407  141.5903  132.0647 C   0  0  0  0  0  0  0  0  0  0  0  0
  128.5280  143.1064  133.6687 C   0  0  1  0  0  0  0  0  0  0  0  0
  128.4443  144.1274  132.5470 C   0  0  0  0  0  0  0  0  0  0  0  0
  128.5081  145.5301  133.0069 C   0  0  0  0  0  0  0  0  0  0  0  0
  127.7009  145.8591  134.2312 C   0  0  2  0  0  0  0  0  0  0  0  0
  126.3069  146.3517  133.8645 C   0  0  0  0  0  0  0  0  0  0  0  0
  130.1841  137.9794  133.1583 O   0  0  0  0  0  0  0  0  0  0  0  0
  130.7180  137.5694  131.9453 C   0  0  2  0  0  0  0  0  0  0  0  0
  129.8656  138.0034  130.9397 O   0  0  0  0  0  0  0  0  0  0  0  0
  130.2564  137.5912  129.6846 C   0  0  1  0  0  0  0  0  0  0  0  0
  131.6196  138.0566  129.2782 C   0  0  0  0  0  0  0  0  0  0  0  0
  130.0986  136.0922  129.6103 C   0  0  2  0  0  0  0  0  0  0  0  0
  128.7442  135.8160  129.8029 O   0  0  0  0  0  0  0  0  0  0  0  0
  130.9187  135.4154  130.6604 C   0  0  1  0  0  0  0  0  0  0  0  0
  132.2228  135.1751  130.1989 O   0  0  0  0  0  0  0  0  0  0  0  0
  130.9002  136.0891  131.9923 C   0  0  1  0  0  0  0  0  0  0  0  0
  132.1122  135.8270  132.6396 O   0  0  0  0  0  0  0  0  0  0  0  0
  127.8050  148.2563  134.9537 C   0  0  0  0  0  0  0  0  0  0  0  0
  126.5825  148.3851  134.3378 C   0  0  0  0  0  0  0  0  0  0  0  0
  125.9351  149.5491  134.2798 O   0  0  0  0  0  0  0  0  0  0  0  0
  126.4257  150.6324  134.8050 C   0  0  0  0  0  0  0  0  0  0  0  0
  125.7637  151.6981  134.7151 O   0  0  0  0  0  0  0  0  0  0  0  0
  127.6455  150.5587  135.4333 C   0  0  0  0  0  0  0  0  0  0  0  0
  128.3596  149.3836  135.5238 C   0  0  0  0  0  0  0  0  0  0  0  0
  1  2  1  0
  2  3  1  0
  3  4  1  0
  4  5  1  1
  4  6  1  0
  6  7  1  1
  7  8  1  0
  8  9  1  0
  9 10  2  0
 10 11  1  0
 11 12  1  0
 12 13  1  0
 13 14  1  0
 14 15  1  6
 14 16  1  0
 16 17  1  6
 17 18  1  0
 18 19  1  0
 19 20  1  6
 11 21  1  6
 22 21  1  1
 22 23  1  0
 23 24  1  0
 24 25  1  1
 24 26  1  0
 26 27  1  1
 26 28  1  0
 28 29  1  6
 28 30  1  0
 30 31  1  6
  1 32  1  1
 32 33  2  0
 33 34  1  0
 34 35  1  0
 35 36  2  0
 35 37  1  0
 37 38  2  0
 19  1  1  0
 30 22  1  0
 38 32  1  0
 19  4  1  0
 16  6  1  0
 14  9  1  0
M  END
$$$$
