
     RDKit          3D

 38 43  0  0  0  0  0  0  0  0999 V2000
  129.3347  159.9617  155.8371 C   0  0  1  0  0  0  0  0  0  0  0  0
  130.1230  159.0464  154.9633 C   0  0  0  0  0  0  0  0  0  0  0  0
  131.3432  159.9057  154.5943 C   0  0  0  0  0  0  0  0  0  0  0  0
  130.6732  161.2175  154.3188 C   0  0  2  0  0  0  0  0  0  0  0  0
  129.9849  161.0544  153.0949 O   0  0  0  0  0  0  0  0  0  0  0  0
  131.6151  162.3712  154.1300 C   0  0  2  0  0  0  0  0  0  0  0  0
  132.5327  162.1097  152.9662 C   0  0  0  0  0  0  0  0  0  0  0  0
  133.6363  163.1004  152.8242 C   0  0  0  0  0  0  0  0  0  0  0  0
  134.1948  163.5203  154.1439 C   0  0  0  0  0  0  0  0  0  0  0  0
  135.5182  163.5800  154.2459 C   0  0  0  0  0  0  0  0  0  0  0  0
  136.2057  163.9836  155.5034 C   0  0  2  0  0  0  0  0  0  0  0  0
  135.2699  164.7414  156.4142 C   0  0  0  0  0  0  0  0  0  0  0  0
  134.0238  163.9330  156.5862 C   0  0  0  0  0  0  0  0  0  0  0  0
  133.2748  163.8475  155.2627 C   0  0  1  0  0  0  0  0  0  0  0  0
  132.6021  165.1873  155.0647 C   0  0  0  0  0  0  0  0  0  0  0  0
  132.2886  162.7242  155.4053 C   0  0  1  0  0  0  0  0  0  0  0  0
  131.2110  163.1402  156.3920 C   0  0  0  0  0  0  0  0  0  0  0  0
  130.1771  162.1096  156.6204 C   0  0  0  0  0  0  0  0  0  0  0  0
  129.6799  161.3930  155.3966 C   0  0  2  0  0  0  0  0  0  0  0  0
  128.4505  162.0760  154.8111 C   0  0  0  0  0  0  0  0  0  0  0  0
  137.3043  164.7427  155.1664 O   0  0  0  0  0  0  0  0  0  0  0  0
  138.4330  164.4768  155.9279 C   0  0  2  0  0  0  0  0  0  0  0  0
  138.5447  165.4783  156.8823 O   0  0  0  0  0  0  0  0  0  0  0  0
  139.6765  165.3609  157.6590 C   0  0  1  0  0  0  0  0  0  0  0  0
  139.7734  164.0751  158.4190 C   0  0  0  0  0  0  0  0  0  0  0  0
  140.8781  165.6203  156.7835 C   0  0  2  0  0  0  0  0  0  0  0  0
  140.7597  166.9269  156.3076 O   0  0  0  0  0  0  0  0  0  0  0  0
  140.9264  164.6567  155.6423 C   0  0  1  0  0  0  0  0  0  0  0  0
  141.6034  163.4822  156.0077 O   0  0  0  0  0  0  0  0  0  0  0  0
  139.6040  164.3789  155.0081 C   0  0  1  0  0  0  0  0  0  0  0  0
  139.6274  163.0835  154.4810 O   0  0  0  0  0  0  0  0  0  0  0  0
  127.8990  159.6824  155.8232 C   0  0  0  0  0  0  0  0  0  0  0  0
  127.3347  158.9462  156.8382 C   0  0  0  0  0  0  0  0  0  0  0  0
  126.0329  158.6605  156.8699 O   0  0  0  0  0  0  0  0  0  0  0  0
  125.2204  159.0640  155.9387 C   0  0  0  0  0  0  0  0  0  0  0  0
  124.0032  158.7599  156.0286 O   0  0  0  0  0  0  0  0  0  0  0  0
  125.7332  159.8041  154.9007 C   0  0  0  0  0  0  0  0  0  0  0  0
  127.0696  160.1295  154.8154 C   0  0  0  0  0  0  0  0  0  0  0  0
  1  2  1  0
  2  3  1  0
  3  4  1  0
  4  5  1  6
  4  6  1  0
  6  7  1  6
  7  8  1  0
  8  9  1  0
  9 10  2  0
 10 11  1  0
 11 12  1  0
 12 13  1  0
 13 14  1  0
 14 15  1  6
 14 16  1  0
 16 17  1  1
 17 18  1  0
 18 19  1  0
 19 20  1  6
 11 21  1  6
 22 21  1  6
 22 23  1  0
 23 24  1  0
 24 25  1  6
 24 26  1  0
 26 27  1  6
 26 28  1  0
 28 29  1  1
 28 30  1  0
 30 31  1  1
  1 32  1  6
 32 33  2  0
 33 34  1  0
 34 35  1  0
 35 36  2  0
 35 37  1  0
 37 38  2  0
 19  1  1  0
 30 22  1  0
 38 32  1  0
 19  4  1  0
 16  6  1  0
 14  9  1  0
M  END
$$$$
