
     RDKit          3D

 38 43  0  0  0  0  0  0  0  0999 V2000
  187.4883  163.3673  141.2671 C   0  0  1  0  0  0  0  0  0  0  0  0
  188.2501  162.1054  141.0441 C   0  0  0  0  0  0  0  0  0  0  0  0
  187.2036  161.1965  140.3791 C   0  0  0  0  0  0  0  0  0  0  0  0
  186.0061  161.5031  141.2261 C   0  0  2  0  0  0  0  0  0  0  0  0
  186.2467  160.8914  142.4777 O   0  0  0  0  0  0  0  0  0  0  0  0
  184.7161  160.9328  140.7118 C   0  0  2  0  0  0  0  0  0  0  0  0
  184.8058  159.4329  140.6291 C   0  0  0  0  0  0  0  0  0  0  0  0
  183.6526  158.7894  139.9392 C   0  0  0  0  0  0  0  0  0  0  0  0
  183.1806  159.5814  138.7646 C   0  0  0  0  0  0  0  0  0  0  0  0
  182.9182  158.9072  137.6502 C   0  0  0  0  0  0  0  0  0  0  0  0
  182.4409  159.5727  136.4068 C   0  0  2  0  0  0  0  0  0  0  0  0
  181.8583  160.9325  136.7086 C   0  0  0  0  0  0  0  0  0  0  0  0
  182.8542  161.7023  137.5157 C   0  0  0  0  0  0  0  0  0  0  0  0
  183.0255  161.0535  138.8831 C   0  0  1  0  0  0  0  0  0  0  0  0
  181.8024  161.4274  139.6901 C   0  0  0  0  0  0  0  0  0  0  0  0
  184.2913  161.6152  139.4635 C   0  0  1  0  0  0  0  0  0  0  0  0
  184.0700  163.0810  139.7958 C   0  0  0  0  0  0  0  0  0  0  0  0
  185.2535  163.7499  140.3746 C   0  0  0  0  0  0  0  0  0  0  0  0
  186.0112  162.9677  141.4104 C   0  0  2  0  0  0  0  0  0  0  0  0
  185.5146  163.2773  142.8168 C   0  0  0  0  0  0  0  0  0  0  0  0
  181.5130  158.7490  135.8091 O   0  0  0  0  0  0  0  0  0  0  0  0
  181.7808  158.4644  134.4780 C   0  0  2  0  0  0  0  0  0  0  0  0
  181.0236  159.3292  133.7001 O   0  0  0  0  0  0  0  0  0  0  0  0
  181.1517  159.0932  132.3489 C   0  0  1  0  0  0  0  0  0  0  0  0
  182.5506  159.2141  131.8306 C   0  0  0  0  0  0  0  0  0  0  0  0
  180.5227  157.7562  132.0420 C   0  0  2  0  0  0  0  0  0  0  0  0
  179.1730  157.8541  132.3833 O   0  0  0  0  0  0  0  0  0  0  0  0
  181.1764  156.6650  132.8263 C   0  0  1  0  0  0  0  0  0  0  0  0
  182.2917  156.1562  132.1417 O   0  0  0  0  0  0  0  0  0  0  0  0
  181.4894  157.0200  134.2420 C   0  0  1  0  0  0  0  0  0  0  0  0
  182.6088  156.2856  134.6471 O   0  0  0  0  0  0  0  0  0  0  0  0
  187.9869  164.1537  142.3951 C   0  0  0  0  0  0  0  0  0  0  0  0
  188.0860  163.5787  143.6402 C   0  0  0  0  0  0  0  0  0  0  0  0
  188.5298  164.2533  144.7010 O   0  0  0  0  0  0  0  0  0  0  0  0
  188.8955  165.4979  144.6173 C   0  0  0  0  0  0  0  0  0  0  0  0
  189.3047  166.0763  145.6566 O   0  0  0  0  0  0  0  0  0  0  0  0
  188.8164  166.1206  143.3949 C   0  0  0  0  0  0  0  0  0  0  0  0
  188.3656  165.4740  142.2646 C   0  0  0  0  0  0  0  0  0  0  0  0
  1  2  1  0
  2  3  1  0
  3  4  1  0
  4  5  1  1
  4  6  1  0
  6  7  1  6
  7  8  1  0
  8  9  1  0
  9 10  2  0
 10 11  1  0
 11 12  1  0
 12 13  1  0
 13 14  1  0
 14 15  1  1
 14 16  1  0
 16 17  1  1
 17 18  1  0
 18 19  1  0
 19 20  1  1
 11 21  1  1
 22 21  1  1
 22 23  1  0
 23 24  1  0
 24 25  1  1
 24 26  1  0
 26 27  1  1
 26 28  1  0
 28 29  1  6
 28 30  1  0
 30 31  1  6
  1 32  1  1
 32 33  2  0
 33 34  1  0
 34 35  1  0
 35 36  2  0
 35 37  1  0
 37 38  2  0
 19  1  1  0
 30 22  1  0
 38 32  1  0
 19  4  1  0
 16  6  1  0
 14  9  1  0
M  END
$$$$
