
     RDKit          3D

 38 43  0  0  0  0  0  0  0  0999 V2000
  193.3108  157.8883  120.3081 C   0  0  1  0  0  0  0  0  0  0  0  0
  194.2582  158.8192  120.9851 C   0  0  0  0  0  0  0  0  0  0  0  0
  193.4071  159.3851  122.1336 C   0  0  0  0  0  0  0  0  0  0  0  0
  192.1141  159.6250  121.4152 C   0  0  2  0  0  0  0  0  0  0  0  0
  192.3369  160.7376  120.5721 O   0  0  0  0  0  0  0  0  0  0  0  0
  190.9629  159.9879  122.3078 C   0  0  2  0  0  0  0  0  0  0  0  0
  191.2693  161.2515  123.0655 C   0  0  0  0  0  0  0  0  0  0  0  0
  190.2775  161.5827  124.1269 C   0  0  0  0  0  0  0  0  0  0  0  0
  189.7949  160.3691  124.8507 C   0  0  0  0  0  0  0  0  0  0  0  0
  189.7206  160.4478  126.1749 C   0  0  0  0  0  0  0  0  0  0  0  0
  189.2561  159.3122  127.0185 C   0  0  2  0  0  0  0  0  0  0  0  0
  188.4654  158.3181  126.2023 C   0  0  0  0  0  0  0  0  0  0  0  0
  189.2747  157.9461  125.0013 C   0  0  0  0  0  0  0  0  0  0  0  0
  189.4249  159.1525  124.0837 C   0  0  1  0  0  0  0  0  0  0  0  0
  188.1004  159.3166  123.3726 C   0  0  0  0  0  0  0  0  0  0  0  0
  190.5482  158.8307  123.1406 C   0  0  1  0  0  0  0  0  0  0  0  0
  190.0966  157.7276  122.1987 C   0  0  0  0  0  0  0  0  0  0  0  0
  191.1237  157.3185  121.2184 C   0  0  0  0  0  0  0  0  0  0  0  0
  191.8981  158.4326  120.5722 C   0  0  2  0  0  0  0  0  0  0  0  0
  191.2512  158.8773  119.2667 C   0  0  0  0  0  0  0  0  0  0  0  0
  188.5045  159.8257  128.0520 O   0  0  0  0  0  0  0  0  0  0  0  0
  188.7929  159.2742  129.2919 C   0  0  2  0  0  0  0  0  0  0  0  0
  188.1622  158.0399  129.3626 O   0  0  0  0  0  0  0  0  0  0  0  0
  188.3177  157.4228  130.5844 C   0  0  1  0  0  0  0  0  0  0  0  0
  189.7408  157.1644  130.9693 C   0  0  0  0  0  0  0  0  0  0  0  0
  187.5639  158.2247  131.6171 C   0  0  2  0  0  0  0  0  0  0  0  0
  186.2197  158.2087  131.2422 O   0  0  0  0  0  0  0  0  0  0  0  0
  188.0678  159.6304  131.6748 C   0  0  1  0  0  0  0  0  0  0  0  0
  189.1493  159.7379  132.5638 O   0  0  0  0  0  0  0  0  0  0  0  0
  188.3606  160.2400  130.3441 C   0  0  1  0  0  0  0  0  0  0  0  0
  189.3796  161.1849  130.5028 O   0  0  0  0  0  0  0  0  0  0  0  0
  193.6013  157.6978  118.8873 C   0  0  0  0  0  0  0  0  0  0  0  0
  193.1385  156.5777  118.2378 C   0  0  0  0  0  0  0  0  0  0  0  0
  193.3795  156.3551  116.9456 O   0  0  0  0  0  0  0  0  0  0  0  0
  194.0684  157.1885  116.2240 C   0  0  0  0  0  0  0  0  0  0  0  0
  194.2597  156.9185  115.0105 O   0  0  0  0  0  0  0  0  0  0  0  0
  194.5543  158.3249  116.8245 C   0  0  0  0  0  0  0  0  0  0  0  0
  194.3370  158.6073  118.1557 C   0  0  0  0  0  0  0  0  0  0  0  0
  1  2  1  0
  2  3  1  0
  3  4  1  0
  4  5  1  6
  4  6  1  0
  6  7  1  1
  7  8  1  0
  8  9  1  0
  9 10  2  0
 10 11  1  0
 11 12  1  0
 12 13  1  0
 13 14  1  0
 14 15  1  6
 14 16  1  0
 16 17  1  6
 17 18  1  0
 18 19  1  0
 19 20  1  6
 11 21  1  1
 22 21  1  6
 22 23  1  0
 23 24  1  0
 24 25  1  1
 24 26  1  0
 26 27  1  6
 26 28  1  0
 28 29  1  1
 28 30  1  0
 30 31  1  1
  1 32  1  6
 32 33  2  0
 33 34  1  0
 34 35  1  0
 35 36  2  0
 35 37  1  0
 37 38  2  0
 19  1  1  0
 30 22  1  0
 38 32  1  0
 19  4  1  0
 16  6  1  0
 14  9  1  0
M  END
$$$$
