
     RDKit          3D

 38 43  0  0  0  0  0  0  0  0999 V2000
  192.6505  158.8449  118.0448 C   0  0  1  0  0  0  0  0  0  0  0  0
  192.4891  157.3675  118.1625 C   0  0  0  0  0  0  0  0  0  0  0  0
  192.0782  157.1926  119.6336 C   0  0  0  0  0  0  0  0  0  0  0  0
  193.0260  158.1486  120.2916 C   0  0  2  0  0  0  0  0  0  0  0  0
  194.3024  157.5455  120.2173 O   0  0  0  0  0  0  0  0  0  0  0  0
  192.7529  158.3948  121.7471 C   0  0  2  0  0  0  0  0  0  0  0  0
  192.8437  157.1065  122.5196 C   0  0  0  0  0  0  0  0  0  0  0  0
  192.3894  157.2097  123.9348 C   0  0  0  0  0  0  0  0  0  0  0  0
  191.1960  158.0947  124.0841 C   0  0  0  0  0  0  0  0  0  0  0  0
  190.2148  157.6553  124.8648 C   0  0  0  0  0  0  0  0  0  0  0  0
  188.9697  158.4371  125.1005 C   0  0  2  0  0  0  0  0  0  0  0  0
  189.1741  159.8958  124.7690 C   0  0  0  0  0  0  0  0  0  0  0  0
  189.7483  159.9891  123.3916 C   0  0  0  0  0  0  0  0  0  0  0  0
  191.1521  159.3982  123.3742 C   0  0  1  0  0  0  0  0  0  0  0  0
  192.0555  160.4230  124.0227 C   0  0  0  0  0  0  0  0  0  0  0  0
  191.4943  159.1606  121.9316 C   0  0  1  0  0  0  0  0  0  0  0  0
  191.6700  160.5027  121.2420 C   0  0  0  0  0  0  0  0  0  0  0  0
  192.0081  160.3999  119.8073 C   0  0  0  0  0  0  0  0  0  0  0  0
  193.0275  159.3571  119.4439 C   0  0  2  0  0  0  0  0  0  0  0  0
  194.4369  159.9350  119.4325 C   0  0  0  0  0  0  0  0  0  0  0  0
  188.5997  158.2670  126.4162 O   0  0  0  0  0  0  0  0  0  0  0  0
  187.2974  158.6557  126.6942 C   0  0  2  0  0  0  0  0  0  0  0  0
  187.2315  160.0360  126.5658 O   0  0  0  0  0  0  0  0  0  0  0  0
  185.9951  160.5505  126.8894 C   0  0  1  0  0  0  0  0  0  0  0  0
  184.8687  160.0200  126.0589 C   0  0  0  0  0  0  0  0  0  0  0  0
  185.7773  160.3582  128.3703 C   0  0  2  0  0  0  0  0  0  0  0  0
  186.7791  161.0762  129.0251 O   0  0  0  0  0  0  0  0  0  0  0  0
  185.8530  158.9118  128.7385 C   0  0  1  0  0  0  0  0  0  0  0  0
  184.5994  158.2945  128.6015 O   0  0  0  0  0  0  0  0  0  0  0  0
  186.9404  158.1529  128.0531 C   0  0  1  0  0  0  0  0  0  0  0  0
  186.5384  156.8193  127.9244 O   0  0  0  0  0  0  0  0  0  0  0  0
  193.6015  159.2432  117.0073 C   0  0  0  0  0  0  0  0  0  0  0  0
  193.5083  160.4901  116.4352 C   0  0  0  0  0  0  0  0  0  0  0  0
  194.3471  160.8994  115.4832 O   0  0  0  0  0  0  0  0  0  0  0  0
  195.3045  160.1394  115.0408 C   0  0  0  0  0  0  0  0  0  0  0  0
  196.0611  160.5866  114.1410 O   0  0  0  0  0  0  0  0  0  0  0  0
  195.4420  158.8827  115.5794 C   0  0  0  0  0  0  0  0  0  0  0  0
  194.6050  158.4061  116.5649 C   0  0  0  0  0  0  0  0  0  0  0  0
  1  2  1  0
  2  3  1  0
  3  4  1  0
  4  5  1  1
  4  6  1  0
  6  7  1  1
  7  8  1  0
  8  9  1  0
  9 10  2  0
 10 11  1  0
 11 12  1  0
 12 13  1  0
 13 14  1  0
 14 15  1  1
 14 16  1  0
 16 17  1  6
 17 18  1  0
 18 19  1  0
 19 20  1  6
 11 21  1  1
 22 21  1  1
 22 23  1  0
 23 24  1  0
 24 25  1  6
 24 26  1  0
 26 27  1  1
 26 28  1  0
 28 29  1  6
 28 30  1  0
 30 31  1  6
  1 32  1  6
 32 33  2  0
 33 34  1  0
 34 35  1  0
 35 36  2  0
 35 37  1  0
 37 38  2  0
 19  1  1  0
 30 22  1  0
 38 32  1  0
 19  4  1  0
 16  6  1  0
 14  9  1  0
M  END
$$$$
