
     RDKit          3D

 38 43  0  0  0  0  0  0  0  0999 V2000
  191.7478  161.3296  112.5673 C   0  0  1  0  0  0  0  0  0  0  0  0
  191.3171  162.4904  113.3979 C   0  0  0  0  0  0  0  0  0  0  0  0
  191.1877  161.8694  114.7983 C   0  0  0  0  0  0  0  0  0  0  0  0
  190.5066  160.5791  114.4568 C   0  0  2  0  0  0  0  0  0  0  0  0
  189.1796  160.9190  114.1077 O   0  0  0  0  0  0  0  0  0  0  0  0
  190.4136  159.6032  115.5938 C   0  0  2  0  0  0  0  0  0  0  0  0
  189.6380  160.2046  116.7346 C   0  0  0  0  0  0  0  0  0  0  0  0
  189.6649  159.3951  117.9851 C   0  0  0  0  0  0  0  0  0  0  0  0
  190.9995  158.7711  118.2282 C   0  0  0  0  0  0  0  0  0  0  0  0
  191.4791  158.8387  119.4654 C   0  0  0  0  0  0  0  0  0  0  0  0
  192.7966  158.2580  119.8449 C   0  0  2  0  0  0  0  0  0  0  0  0
  193.2448  157.2260  118.8382 C   0  0  0  0  0  0  0  0  0  0  0  0
  193.1728  157.8363  117.4751 C   0  0  0  0  0  0  0  0  0  0  0  0
  191.7210  158.1151  117.1082 C   0  0  1  0  0  0  0  0  0  0  0  0
  191.1070  156.7809  116.7480 C   0  0  0  0  0  0  0  0  0  0  0  0
  191.7522  159.0663  115.9468 C   0  0  1  0  0  0  0  0  0  0  0  0
  192.2876  158.3344  114.7280 C   0  0  0  0  0  0  0  0  0  0  0  0
  192.3695  159.1721  113.5136 C   0  0  0  0  0  0  0  0  0  0  0  0
  191.1935  160.0709  113.2530 C   0  0  2  0  0  0  0  0  0  0  0  0
  190.1615  159.3943  112.3599 C   0  0  0  0  0  0  0  0  0  0  0  0
  192.6781  157.7141  121.1046 O   0  0  0  0  0  0  0  0  0  0  0  0
  192.0313  158.5336  122.0181 C   0  0  2  0  0  0  0  0  0  0  0  0
  192.8764  159.5966  122.3049 O   0  0  0  0  0  0  0  0  0  0  0  0
  192.3688  160.4475  123.2621 C   0  0  1  0  0  0  0  0  0  0  0  0
  191.0560  161.0695  122.9021 C   0  0  0  0  0  0  0  0  0  0  0  0
  192.3301  159.7083  124.5773 C   0  0  2  0  0  0  0  0  0  0  0  0
  193.6467  159.3681  124.8912 O   0  0  0  0  0  0  0  0  0  0  0  0
  191.4887  158.4776  124.4744 C   0  0  1  0  0  0  0  0  0  0  0  0
  190.1415  158.7690  124.7421 O   0  0  0  0  0  0  0  0  0  0  0  0
  191.6649  157.7093  123.2068 C   0  0  1  0  0  0  0  0  0  0  0  0
  190.4664  157.0490  122.9171 O   0  0  0  0  0  0  0  0  0  0  0  0
  191.3548  161.4441  111.1631 C   0  0  0  0  0  0  0  0  0  0  0  0
  192.3055  161.3400  110.1752 C   0  0  0  0  0  0  0  0  0  0  0  0
  191.9999  161.4415  108.8815 O   0  0  0  0  0  0  0  0  0  0  0  0
  190.7805  161.6453  108.4798 C   0  0  0  0  0  0  0  0  0  0  0  0
  190.5601  161.7315  107.2444 O   0  0  0  0  0  0  0  0  0  0  0  0
  189.7913  161.7569  109.4270 C   0  0  0  0  0  0  0  0  0  0  0  0
  190.0479  161.6606  110.7775 C   0  0  0  0  0  0  0  0  0  0  0  0
  1  2  1  0
  2  3  1  0
  3  4  1  0
  4  5  1  6
  4  6  1  0
  6  7  1  1
  7  8  1  0
  8  9  1  0
  9 10  2  0
 10 11  1  0
 11 12  1  0
 12 13  1  0
 13 14  1  0
 14 15  1  6
 14 16  1  0
 16 17  1  6
 17 18  1  0
 18 19  1  0
 19 20  1  6
 11 21  1  1
 22 21  1  6
 22 23  1  0
 23 24  1  0
 24 25  1  6
 24 26  1  0
 26 27  1  6
 26 28  1  0
 28 29  1  6
 28 30  1  0
 30 31  1  6
  1 32  1  6
 32 33  2  0
 33 34  1  0
 34 35  1  0
 35 36  2  0
 35 37  1  0
 37 38  2  0
 19  1  1  0
 30 22  1  0
 38 32  1  0
 19  4  1  0
 16  6  1  0
 14  9  1  0
M  END
$$$$
