
     RDKit          3D

 38 43  0  0  0  0  0  0  0  0999 V2000
  128.1051  149.4481  135.2318 C   0  0  1  0  0  0  0  0  0  0  0  0
  128.4165  148.8687  136.5697 C   0  0  0  0  0  0  0  0  0  0  0  0
  128.3885  147.3566  136.2936 C   0  0  0  0  0  0  0  0  0  0  0  0
  127.1705  147.2657  135.4255 C   0  0  2  0  0  0  0  0  0  0  0  0
  126.0653  147.4794  136.2807 O   0  0  0  0  0  0  0  0  0  0  0  0
  126.9616  145.9252  134.7827 C   0  0  2  0  0  0  0  0  0  0  0  0
  126.8142  144.8599  135.8353 C   0  0  0  0  0  0  0  0  0  0  0  0
  126.8074  143.4695  135.3000 C   0  0  0  0  0  0  0  0  0  0  0  0
  127.7748  143.2895  134.1768 C   0  0  0  0  0  0  0  0  0  0  0  0
  128.5268  142.1943  134.1999 C   0  0  0  0  0  0  0  0  0  0  0  0
  129.5307  141.8916  133.1428 C   0  0  2  0  0  0  0  0  0  0  0  0
  129.2450  142.6737  131.8833 C   0  0  0  0  0  0  0  0  0  0  0  0
  129.1014  144.1166  132.2481 C   0  0  0  0  0  0  0  0  0  0  0  0
  127.8572  144.3133  133.1044 C   0  0  1  0  0  0  0  0  0  0  0  0
  126.6750  144.2400  132.1643 C   0  0  0  0  0  0  0  0  0  0  0  0
  127.9957  145.6617  133.7504 C   0  0  1  0  0  0  0  0  0  0  0  0
  127.8594  146.7333  132.6822 C   0  0  0  0  0  0  0  0  0  0  0  0
  127.9819  148.1126  133.1976 C   0  0  0  0  0  0  0  0  0  0  0  0
  127.2637  148.4005  134.4859 C   0  0  2  0  0  0  0  0  0  0  0  0
  125.8589  148.9334  134.2344 C   0  0  0  0  0  0  0  0  0  0  0  0
  129.5098  140.5346  132.9082 O   0  0  0  0  0  0  0  0  0  0  0  0
  129.9203  139.7658  133.9874 C   0  0  2  0  0  0  0  0  0  0  0  0
  131.0979  139.1257  133.6270 O   0  0  0  0  0  0  0  0  0  0  0  0
  131.5679  138.2708  134.5997 C   0  0  1  0  0  0  0  0  0  0  0  0
  131.8589  138.9287  135.9122 C   0  0  0  0  0  0  0  0  0  0  0  0
  130.6026  137.1169  134.7199 C   0  0  2  0  0  0  0  0  0  0  0  0
  130.5868  136.4700  133.4833 O   0  0  0  0  0  0  0  0  0  0  0  0
  129.2321  137.6002  135.0681 C   0  0  1  0  0  0  0  0  0  0  0  0
  129.0788  137.7095  136.4595 O   0  0  0  0  0  0  0  0  0  0  0  0
  128.8089  138.8378  134.3488 C   0  0  1  0  0  0  0  0  0  0  0  0
  127.9123  139.5394  135.1614 O   0  0  0  0  0  0  0  0  0  0  0  0
  127.4638  150.7607  135.3037 C   0  0  0  0  0  0  0  0  0  0  0  0
  127.9102  151.7858  134.5033 C   0  0  0  0  0  0  0  0  0  0  0  0
  127.3631  153.0011  134.5339 O   0  0  0  0  0  0  0  0  0  0  0  0
  126.3723  153.2863  135.3257 C   0  0  0  0  0  0  0  0  0  0  0  0
  125.9020  154.4527  135.3053 O   0  0  0  0  0  0  0  0  0  0  0  0
  125.8874  152.2971  136.1469 C   0  0  0  0  0  0  0  0  0  0  0  0
  126.4131  151.0233  136.1585 C   0  0  0  0  0  0  0  0  0  0  0  0
  1  2  1  0
  2  3  1  0
  3  4  1  0
  4  5  1  1
  4  6  1  0
  6  7  1  1
  7  8  1  0
  8  9  1  0
  9 10  2  0
 10 11  1  0
 11 12  1  0
 12 13  1  0
 13 14  1  0
 14 15  1  6
 14 16  1  0
 16 17  1  6
 17 18  1  0
 18 19  1  0
 19 20  1  6
 11 21  1  6
 22 21  1  6
 22 23  1  0
 23 24  1  0
 24 25  1  1
 24 26  1  0
 26 27  1  6
 26 28  1  0
 28 29  1  1
 28 30  1  0
 30 31  1  1
  1 32  1  1
 32 33  2  0
 33 34  1  0
 34 35  1  0
 35 36  2  0
 35 37  1  0
 37 38  2  0
 19  1  1  0
 30 22  1  0
 38 32  1  0
 19  4  1  0
 16  6  1  0
 14  9  1  0
M  END
$$$$
