
     RDKit          3D

 38 43  0  0  0  0  0  0  0  0999 V2000
  127.5213  147.6070  134.5048 C   0  0  1  0  0  0  0  0  0  0  0  0
  128.2433  147.2830  133.2413 C   0  0  0  0  0  0  0  0  0  0  0  0
  128.4622  145.7660  133.3613 C   0  0  0  0  0  0  0  0  0  0  0  0
  128.8730  145.6679  134.7991 C   0  0  2  0  0  0  0  0  0  0  0  0
  130.1767  146.2098  134.8700 O   0  0  0  0  0  0  0  0  0  0  0  0
  128.9628  144.2656  135.3275 C   0  0  2  0  0  0  0  0  0  0  0  0
  129.9745  143.4763  134.5413 C   0  0  0  0  0  0  0  0  0  0  0  0
  129.9897  142.0197  134.8544 C   0  0  0  0  0  0  0  0  0  0  0  0
  128.6182  141.4736  135.0789 C   0  0  0  0  0  0  0  0  0  0  0  0
  128.3303  140.3128  134.5002 C   0  0  0  0  0  0  0  0  0  0  0  0
  127.0014  139.6566  134.6420 C   0  0  2  0  0  0  0  0  0  0  0  0
  126.2586  140.1896  135.8437 C   0  0  0  0  0  0  0  0  0  0  0  0
  126.2401  141.6825  135.7610 C   0  0  0  0  0  0  0  0  0  0  0  0
  127.6534  142.2278  135.9190 C   0  0  1  0  0  0  0  0  0  0  0  0
  127.9890  142.1266  137.3901 C   0  0  0  0  0  0  0  0  0  0  0  0
  127.6167  143.6484  135.4339 C   0  0  1  0  0  0  0  0  0  0  0  0
  126.8079  144.4804  136.4144 C   0  0  0  0  0  0  0  0  0  0  0  0
  126.6960  145.9058  136.0416 C   0  0  0  0  0  0  0  0  0  0  0  0
  127.9544  146.5557  135.5387 C   0  0  2  0  0  0  0  0  0  0  0  0
  128.7312  147.2167  136.6701 C   0  0  0  0  0  0  0  0  0  0  0  0
  127.2025  138.2975  134.7369 O   0  0  0  0  0  0  0  0  0  0  0  0
  127.3307  137.6561  133.5135 C   0  0  2  0  0  0  0  0  0  0  0  0
  126.0862  137.1458  133.1712 O   0  0  0  0  0  0  0  0  0  0  0  0
  126.1032  136.4198  132.0005 C   0  0  1  0  0  0  0  0  0  0  0  0
  126.5598  137.1912  130.8019 C   0  0  0  0  0  0  0  0  0  0  0  0
  126.9078  135.1648  132.2355 C   0  0  2  0  0  0  0  0  0  0  0  0
  126.2528  134.4434  133.2347 O   0  0  0  0  0  0  0  0  0  0  0  0
  128.3005  135.4951  132.6647 C   0  0  1  0  0  0  0  0  0  0  0  0
  129.1380  135.6730  131.5519 O   0  0  0  0  0  0  0  0  0  0  0  0
  128.3993  136.6220  133.6386 C   0  0  1  0  0  0  0  0  0  0  0  0
  129.6327  137.2569  133.4599 O   0  0  0  0  0  0  0  0  0  0  0  0
  127.7309  148.9826  134.9557 C   0  0  0  0  0  0  0  0  0  0  0  0
  128.9973  149.5182  134.9543 C   0  0  0  0  0  0  0  0  0  0  0  0
  129.2420  150.7646  135.3595 O   0  0  0  0  0  0  0  0  0  0  0  0
  128.2927  151.5467  135.7803 C   0  0  0  0  0  0  0  0  0  0  0  0
  128.5916  152.7117  136.1486 O   0  0  0  0  0  0  0  0  0  0  0  0
  127.0077  151.0605  135.8017 C   0  0  0  0  0  0  0  0  0  0  0  0
  126.6954  149.7813  135.3953 C   0  0  0  0  0  0  0  0  0  0  0  0
  1  2  1  0
  2  3  1  0
  3  4  1  0
  4  5  1  6
  4  6  1  0
  6  7  1  6
  7  8  1  0
  8  9  1  0
  9 10  2  0
 10 11  1  0
 11 12  1  0
 12 13  1  0
 13 14  1  0
 14 15  1  1
 14 16  1  0
 16 17  1  1
 17 18  1  0
 18 19  1  0
 19 20  1  1
 11 21  1  1
 22 21  1  1
 22 23  1  0
 23 24  1  0
 24 25  1  6
 24 26  1  0
 26 27  1  1
 26 28  1  0
 28 29  1  6
 28 30  1  0
 30 31  1  6
  1 32  1  1
 32 33  2  0
 33 34  1  0
 34 35  1  0
 35 36  2  0
 35 37  1  0
 37 38  2  0
 19  1  1  0
 30 22  1  0
 38 32  1  0
 19  4  1  0
 16  6  1  0
 14  9  1  0
M  END
$$$$
