
     RDKit          3D

 38 43  0  0  0  0  0  0  0  0999 V2000
  202.8583  138.8506  130.4582 C   0  0  1  0  0  0  0  0  0  0  0  0
  204.3483  138.8946  130.4875 C   0  0  0  0  0  0  0  0  0  0  0  0
  204.7057  137.6036  131.2419 C   0  0  0  0  0  0  0  0  0  0  0  0
  203.6843  137.6425  132.3376 C   0  0  2  0  0  0  0  0  0  0  0  0
  204.0904  138.6757  133.2129 O   0  0  0  0  0  0  0  0  0  0  0  0
  203.6055  136.3898  133.1612 C   0  0  2  0  0  0  0  0  0  0  0  0
  204.9292  136.1173  133.8232 C   0  0  0  0  0  0  0  0  0  0  0  0
  205.0137  134.7907  134.4960 C   0  0  0  0  0  0  0  0  0  0  0  0
  204.3243  133.7167  133.7209 C   0  0  0  0  0  0  0  0  0  0  0  0
  204.9647  132.5593  133.5955 C   0  0  0  0  0  0  0  0  0  0  0  0
  204.3917  131.4055  132.8490 C   0  0  2  0  0  0  0  0  0  0  0  0
  202.8958  131.5446  132.7000 C   0  0  0  0  0  0  0  0  0  0  0  0
  202.6035  132.8959  132.1305 C   0  0  0  0  0  0  0  0  0  0  0  0
  202.9843  133.9752  133.1356 C   0  0  1  0  0  0  0  0  0  0  0  0
  201.9006  133.9789  134.1903 C   0  0  0  0  0  0  0  0  0  0  0  0
  203.0459  135.2653  132.3696 C   0  0  1  0  0  0  0  0  0  0  0  0
  201.6382  135.6553  131.9524 C   0  0  0  0  0  0  0  0  0  0  0  0
  201.5681  136.9151  131.1835 C   0  0  0  0  0  0  0  0  0  0  0  0
  202.4196  138.0446  131.6910 C   0  0  2  0  0  0  0  0  0  0  0  0
  201.6477  138.9350  132.6564 C   0  0  0  0  0  0  0  0  0  0  0  0
  204.7252  130.2513  133.5224 O   0  0  0  0  0  0  0  0  0  0  0  0
  203.7540  129.2622  133.4687 C   0  0  2  0  0  0  0  0  0  0  0  0
  203.2038  129.1406  134.7371 O   0  0  0  0  0  0  0  0  0  0  0  0
  202.2698  128.1317  134.8266 C   0  0  1  0  0  0  0  0  0  0  0  0
  201.1039  128.2854  133.9008 C   0  0  0  0  0  0  0  0  0  0  0  0
  202.9837  126.8123  134.6618 C   0  0  2  0  0  0  0  0  0  0  0  0
  203.8976  126.7108  135.7116 O   0  0  0  0  0  0  0  0  0  0  0  0
  203.6951  126.7496  133.3491 C   0  0  1  0  0  0  0  0  0  0  0  0
  202.8431  126.2714  132.3407 O   0  0  0  0  0  0  0  0  0  0  0  0
  204.3890  128.0121  132.9581 C   0  0  1  0  0  0  0  0  0  0  0  0
  204.4209  128.0874  131.5617 O   0  0  0  0  0  0  0  0  0  0  0  0
  202.2408  140.1744  130.3826 C   0  0  0  0  0  0  0  0  0  0  0  0
  200.9894  140.3157  129.8307 C   0  0  0  0  0  0  0  0  0  0  0  0
  200.3850  141.5002  129.7344 O   0  0  0  0  0  0  0  0  0  0  0  0
  200.9474  142.5926  130.1589 C   0  0  0  0  0  0  0  0  0  0  0  0
  200.3227  143.6776  130.0379 O   0  0  0  0  0  0  0  0  0  0  0  0
  202.1990  142.5070  130.7196 C   0  0  0  0  0  0  0  0  0  0  0  0
  202.8716  141.3109  130.8453 C   0  0  0  0  0  0  0  0  0  0  0  0
  1  2  1  0
  2  3  1  0
  3  4  1  0
  4  5  1  1
  4  6  1  0
  6  7  1  6
  7  8  1  0
  8  9  1  0
  9 10  2  0
 10 11  1  0
 11 12  1  0
 12 13  1  0
 13 14  1  0
 14 15  1  1
 14 16  1  0
 16 17  1  1
 17 18  1  0
 18 19  1  0
 19 20  1  1
 11 21  1  1
 22 21  1  1
 22 23  1  0
 23 24  1  0
 24 25  1  6
 24 26  1  0
 26 27  1  1
 26 28  1  0
 28 29  1  6
 28 30  1  0
 30 31  1  6
  1 32  1  1
 32 33  2  0
 33 34  1  0
 34 35  1  0
 35 36  2  0
 35 37  1  0
 37 38  2  0
 19  1  1  0
 30 22  1  0
 38 32  1  0
 19  4  1  0
 16  6  1  0
 14  9  1  0
M  END
$$$$
