
     RDKit          3D

 38 43  0  0  0  0  0  0  0  0999 V2000
  158.1628  157.3106  139.4972 C   0  0  1  0  0  0  0  0  0  0  0  0
  156.6907  157.2201  139.7148 C   0  0  0  0  0  0  0  0  0  0  0  0
  156.2550  158.6937  139.6681 C   0  0  0  0  0  0  0  0  0  0  0  0
  157.3472  159.3215  140.4795 C   0  0  2  0  0  0  0  0  0  0  0  0
  157.1096  158.9352  141.8184 O   0  0  0  0  0  0  0  0  0  0  0  0
  157.3531  160.8226  140.4615 C   0  0  2  0  0  0  0  0  0  0  0  0
  156.0566  161.3554  141.0091 C   0  0  0  0  0  0  0  0  0  0  0  0
  155.8826  162.8259  140.8443 C   0  0  0  0  0  0  0  0  0  0  0  0
  156.4040  163.3153  139.5335 C   0  0  0  0  0  0  0  0  0  0  0  0
  155.6414  164.1737  138.8650 C   0  0  0  0  0  0  0  0  0  0  0  0
  156.0410  164.7398  137.5471 C   0  0  2  0  0  0  0  0  0  0  0  0
  157.5297  164.6119  137.3306 C   0  0  0  0  0  0  0  0  0  0  0  0
  157.9195  163.1885  137.5709 C   0  0  0  0  0  0  0  0  0  0  0  0
  157.7205  162.8377  139.0397 C   0  0  1  0  0  0  0  0  0  0  0  0
  158.8681  163.4746  139.7908 C   0  0  0  0  0  0  0  0  0  0  0  0
  157.7395  161.3386  139.1240 C   0  0  1  0  0  0  0  0  0  0  0  0
  159.1480  160.8490  138.8340 C   0  0  0  0  0  0  0  0  0  0  0  0
  159.2943  159.3796  138.8842 C   0  0  0  0  0  0  0  0  0  0  0  0
  158.5995  158.6871  140.0228 C   0  0  2  0  0  0  0  0  0  0  0  0
  159.5224  158.5251  141.2238 C   0  0  0  0  0  0  0  0  0  0  0  0
  155.6376  166.0560  137.5061 O   0  0  0  0  0  0  0  0  0  0  0  0
  156.5694  166.9510  138.0111 C   0  0  2  0  0  0  0  0  0  0  0  0
  157.4112  166.2495  138.8629 O   0  0  0  0  0  0  0  0  0  0  0  0
  158.3416  167.0524  139.4854 C   0  0  1  0  0  0  0  0  0  0  0  0
  159.2477  167.7885  138.5488 C   0  0  0  0  0  0  0  0  0  0  0  0
  157.6126  167.9659  140.4402 C   0  0  2  0  0  0  0  0  0  0  0  0
  156.9809  167.1506  141.3803 O   0  0  0  0  0  0  0  0  0  0  0  0
  156.6042  168.7994  139.7180 C   0  0  1  0  0  0  0  0  0  0  0  0
  157.1875  169.9803  139.2314 O   0  0  0  0  0  0  0  0  0  0  0  0
  155.8329  168.0699  138.6687 C   0  0  1  0  0  0  0  0  0  0  0  0
  155.4630  168.9818  137.6746 O   0  0  0  0  0  0  0  0  0  0  0  0
  158.9061  156.2011  140.0937 C   0  0  0  0  0  0  0  0  0  0  0  0
  159.8397  156.4498  141.0721 C   0  0  0  0  0  0  0  0  0  0  0  0
  160.5465  155.4748  141.6441 O   0  0  0  0  0  0  0  0  0  0  0  0
  160.3917  154.2287  141.3075 C   0  0  0  0  0  0  0  0  0  0  0  0
  161.0905  153.3576  141.8863 O   0  0  0  0  0  0  0  0  0  0  0  0
  159.4706  153.9251  140.3341 C   0  0  0  0  0  0  0  0  0  0  0  0
  158.7121  154.8906  139.7083 C   0  0  0  0  0  0  0  0  0  0  0  0
  1  2  1  0
  2  3  1  0
  3  4  1  0
  4  5  1  1
  4  6  1  0
  6  7  1  6
  7  8  1  0
  8  9  1  0
  9 10  2  0
 10 11  1  0
 11 12  1  0
 12 13  1  0
 13 14  1  0
 14 15  1  1
 14 16  1  0
 16 17  1  1
 17 18  1  0
 18 19  1  0
 19 20  1  1
 11 21  1  1
 22 21  1  1
 22 23  1  0
 23 24  1  0
 24 25  1  6
 24 26  1  0
 26 27  1  1
 26 28  1  0
 28 29  1  6
 28 30  1  0
 30 31  1  6
  1 32  1  1
 32 33  2  0
 33 34  1  0
 34 35  1  0
 35 36  2  0
 35 37  1  0
 37 38  2  0
 19  1  1  0
 30 22  1  0
 38 32  1  0
 19  4  1  0
 16  6  1  0
 14  9  1  0
M  END
$$$$
