
     RDKit          3D

 38 43  0  0  0  0  0  0  0  0999 V2000
  190.3471  161.5078  133.0627 C   0  0  1  0  0  0  0  0  0  0  0  0
  191.3249  161.1544  134.1312 C   0  0  0  0  0  0  0  0  0  0  0  0
  190.4329  161.0494  135.3789 C   0  0  0  0  0  0  0  0  0  0  0  0
  189.5579  162.2503  135.1839 C   0  0  2  0  0  0  0  0  0  0  0  0
  190.3759  163.3745  135.4399 O   0  0  0  0  0  0  0  0  0  0  0  0
  188.3993  162.3384  136.1345 C   0  0  2  0  0  0  0  0  0  0  0  0
  188.8937  162.3985  137.5546 C   0  0  0  0  0  0  0  0  0  0  0  0
  187.8197  162.2815  138.5805 C   0  0  0  0  0  0  0  0  0  0  0  0
  186.7678  161.2961  138.1905 C   0  0  0  0  0  0  0  0  0  0  0  0
  186.3558  160.4519  139.1302 C   0  0  0  0  0  0  0  0  0  0  0  0
  185.3132  159.4198  138.8763 C   0  0  2  0  0  0  0  0  0  0  0  0
  184.4933  159.7655  137.6565 C   0  0  0  0  0  0  0  0  0  0  0  0
  185.4291  160.0359  136.5220 C   0  0  0  0  0  0  0  0  0  0  0  0
  186.2350  161.2971  136.8044 C   0  0  1  0  0  0  0  0  0  0  0  0
  185.3039  162.4633  136.5602 C   0  0  0  0  0  0  0  0  0  0  0  0
  187.3969  161.2798  135.8534 C   0  0  1  0  0  0  0  0  0  0  0  0
  186.8791  161.5028  134.4427 C   0  0  0  0  0  0  0  0  0  0  0  0
  187.9353  161.5035  133.4094 C   0  0  0  0  0  0  0  0  0  0  0  0
  189.1929  162.2509  133.7536 C   0  0  2  0  0  0  0  0  0  0  0  0
  189.1324  163.6953  133.2732 C   0  0  0  0  0  0  0  0  0  0  0  0
  184.5247  159.3214  140.0012 O   0  0  0  0  0  0  0  0  0  0  0  0
  183.5088  160.2638  140.0663 C   0  0  2  0  0  0  0  0  0  0  0  0
  183.8800  161.2221  140.9991 O   0  0  0  0  0  0  0  0  0  0  0  0
  182.9112  162.1797  141.2050 C   0  0  1  0  0  0  0  0  0  0  0  0
  182.5302  162.9467  139.9775 C   0  0  0  0  0  0  0  0  0  0  0  0
  181.7322  161.5206  141.8781 C   0  0  2  0  0  0  0  0  0  0  0  0
  182.1859  161.0299  143.1033 O   0  0  0  0  0  0  0  0  0  0  0  0
  181.1938  160.4053  141.0419 C   0  0  1  0  0  0  0  0  0  0  0  0
  180.2435  160.8817  140.1246 O   0  0  0  0  0  0  0  0  0  0  0  0
  182.2364  159.5562  140.3937 C   0  0  1  0  0  0  0  0  0  0  0  0
  181.7134  159.0422  139.2025 O   0  0  0  0  0  0  0  0  0  0  0  0
  190.9418  162.2610  131.9589 C   0  0  0  0  0  0  0  0  0  0  0  0
  190.2158  163.2470  131.3332 C   0  0  0  0  0  0  0  0  0  0  0  0
  190.7100  163.9589  130.3201 O   0  0  0  0  0  0  0  0  0  0  0  0
  191.9114  163.7599  129.8652 C   0  0  0  0  0  0  0  0  0  0  0  0
  192.3168  164.4663  128.9066 O   0  0  0  0  0  0  0  0  0  0  0  0
  192.6799  162.7858  130.4556 C   0  0  0  0  0  0  0  0  0  0  0  0
  192.2221  162.0192  131.5053 C   0  0  0  0  0  0  0  0  0  0  0  0
  1  2  1  0
  2  3  1  0
  3  4  1  0
  4  5  1  6
  4  6  1  0
  6  7  1  1
  7  8  1  0
  8  9  1  0
  9 10  2  0
 10 11  1  0
 11 12  1  0
 12 13  1  0
 13 14  1  0
 14 15  1  6
 14 16  1  0
 16 17  1  6
 17 18  1  0
 18 19  1  0
 19 20  1  6
 11 21  1  1
 22 21  1  1
 22 23  1  0
 23 24  1  0
 24 25  1  6
 24 26  1  0
 26 27  1  1
 26 28  1  0
 28 29  1  6
 28 30  1  0
 30 31  1  6
  1 32  1  6
 32 33  2  0
 33 34  1  0
 34 35  1  0
 35 36  2  0
 35 37  1  0
 37 38  2  0
 19  1  1  0
 30 22  1  0
 38 32  1  0
 19  4  1  0
 16  6  1  0
 14  9  1  0
M  END
$$$$
