
     RDKit          3D

 38 43  0  0  0  0  0  0  0  0999 V2000
  209.6317  164.3790  140.8333 C   0  0  1  0  0  0  0  0  0  0  0  0
  210.3186  164.1494  139.5302 C   0  0  0  0  0  0  0  0  0  0  0  0
  211.7218  163.6982  139.9673 C   0  0  0  0  0  0  0  0  0  0  0  0
  211.9831  164.6727  141.0753 C   0  0  2  0  0  0  0  0  0  0  0  0
  212.2026  165.9224  140.4518 O   0  0  0  0  0  0  0  0  0  0  0  0
  213.2105  164.3783  141.8880 C   0  0  2  0  0  0  0  0  0  0  0  0
  214.4329  164.3943  141.0104 C   0  0  0  0  0  0  0  0  0  0  0  0
  215.6729  163.9134  141.6818 C   0  0  0  0  0  0  0  0  0  0  0  0
  215.4138  162.7575  142.5909 C   0  0  0  0  0  0  0  0  0  0  0  0
  216.2666  161.7404  142.5294 C   0  0  0  0  0  0  0  0  0  0  0  0
  216.1256  160.5265  143.3799 C   0  0  2  0  0  0  0  0  0  0  0  0
  215.2516  160.8030  144.5795 C   0  0  0  0  0  0  0  0  0  0  0  0
  213.9728  161.4115  144.0995 C   0  0  0  0  0  0  0  0  0  0  0  0
  214.2446  162.7876  143.5058 C   0  0  1  0  0  0  0  0  0  0  0  0
  214.4682  163.7210  144.6744 C   0  0  0  0  0  0  0  0  0  0  0  0
  213.0283  163.1512  142.7039 C   0  0  1  0  0  0  0  0  0  0  0  0
  211.8708  163.4019  143.6552 C   0  0  0  0  0  0  0  0  0  0  0  0
  210.6082  163.7671  142.9802 C   0  0  0  0  0  0  0  0  0  0  0  0
  210.7268  164.7469  141.8469 C   0  0  2  0  0  0  0  0  0  0  0  0
  210.5414  166.1806  142.3273 C   0  0  0  0  0  0  0  0  0  0  0  0
  217.3858  160.1199  143.7584 O   0  0  0  0  0  0  0  0  0  0  0  0
  217.5507  159.9849  145.1292 C   0  0  2  0  0  0  0  0  0  0  0  0
  217.2170  161.1973  145.7166 O   0  0  0  0  0  0  0  0  0  0  0  0
  217.4110  161.2085  147.0805 C   0  0  1  0  0  0  0  0  0  0  0  0
  216.6235  160.1762  147.8250 C   0  0  0  0  0  0  0  0  0  0  0  0
  218.8942  161.1238  147.3465 C   0  0  2  0  0  0  0  0  0  0  0  0
  219.4753  162.2555  146.7726 O   0  0  0  0  0  0  0  0  0  0  0  0
  219.4750  159.8841  146.7472 C   0  0  1  0  0  0  0  0  0  0  0  0
  219.3805  158.8051  147.6406 O   0  0  0  0  0  0  0  0  0  0  0  0
  218.9536  159.5479  145.3896 C   0  0  1  0  0  0  0  0  0  0  0  0
  219.0075  158.1600  145.2242 O   0  0  0  0  0  0  0  0  0  0  0  0
  208.5585  165.3698  140.7561 C   0  0  0  0  0  0  0  0  0  0  0  0
  208.8029  166.6019  140.1968 C   0  0  0  0  0  0  0  0  0  0  0  0
  207.8607  167.5408  140.1066 O   0  0  0  0  0  0  0  0  0  0  0  0
  206.6526  167.3429  140.5442 C   0  0  0  0  0  0  0  0  0  0  0  0
  205.8111  168.2706  140.4286 O   0  0  0  0  0  0  0  0  0  0  0  0
  206.3550  166.1277  141.1123 C   0  0  0  0  0  0  0  0  0  0  0  0
  207.2878  165.1205  141.2325 C   0  0  0  0  0  0  0  0  0  0  0  0
  1  2  1  0
  2  3  1  0
  3  4  1  0
  4  5  1  6
  4  6  1  0
  6  7  1  6
  7  8  1  0
  8  9  1  0
  9 10  2  0
 10 11  1  0
 11 12  1  0
 12 13  1  0
 13 14  1  0
 14 15  1  1
 14 16  1  0
 16 17  1  1
 17 18  1  0
 18 19  1  0
 19 20  1  1
 11 21  1  1
 22 21  1  6
 22 23  1  0
 23 24  1  0
 24 25  1  1
 24 26  1  0
 26 27  1  6
 26 28  1  0
 28 29  1  1
 28 30  1  0
 30 31  1  1
  1 32  1  6
 32 33  2  0
 33 34  1  0
 34 35  1  0
 35 36  2  0
 35 37  1  0
 37 38  2  0
 19  1  1  0
 30 22  1  0
 38 32  1  0
 19  4  1  0
 16  6  1  0
 14  9  1  0
M  END
$$$$
