
     RDKit          3D

 38 43  0  0  0  0  0  0  0  0999 V2000
  169.5918  148.2135  126.9451 C   0  0  1  0  0  0  0  0  0  0  0  0
  169.7158  148.7642  125.5652 C   0  0  0  0  0  0  0  0  0  0  0  0
  168.6363  149.8587  125.5442 C   0  0  0  0  0  0  0  0  0  0  0  0
  167.5163  149.1431  126.2364 C   0  0  2  0  0  0  0  0  0  0  0  0
  167.0443  148.1772  125.3184 O   0  0  0  0  0  0  0  0  0  0  0  0
  166.3427  150.0118  126.5852 C   0  0  2  0  0  0  0  0  0  0  0  0
  165.7546  150.6180  125.3396 C   0  0  0  0  0  0  0  0  0  0  0  0
  164.7160  151.6548  125.5969 C   0  0  0  0  0  0  0  0  0  0  0  0
  165.0544  152.5184  126.7671 C   0  0  0  0  0  0  0  0  0  0  0  0
  164.8752  153.8268  126.6213 C   0  0  0  0  0  0  0  0  0  0  0  0
  165.1727  154.8004  127.7079 C   0  0  2  0  0  0  0  0  0  0  0  0
  165.2180  154.1154  129.0526 C   0  0  0  0  0  0  0  0  0  0  0  0
  166.1471  152.9480  128.9547 C   0  0  0  0  0  0  0  0  0  0  0  0
  165.5641  151.8990  128.0168 C   0  0  1  0  0  0  0  0  0  0  0  0
  164.4663  151.1997  128.7867 C   0  0  0  0  0  0  0  0  0  0  0  0
  166.6931  150.9761  127.6585 C   0  0  1  0  0  0  0  0  0  0  0  0
  167.0779  150.1718  128.8885 C   0  0  0  0  0  0  0  0  0  0  0  0
  168.1881  149.2236  128.6616 C   0  0  0  0  0  0  0  0  0  0  0  0
  168.1353  148.4424  127.3788 C   0  0  2  0  0  0  0  0  0  0  0  0
  167.4246  147.1082  127.5670 C   0  0  0  0  0  0  0  0  0  0  0  0
  164.2098  155.7846  127.6767 O   0  0  0  0  0  0  0  0  0  0  0  0
  164.6756  157.0208  127.2531 C   0  0  2  0  0  0  0  0  0  0  0  0
  165.6622  157.4276  128.1405 O   0  0  0  0  0  0  0  0  0  0  0  0
  166.1545  158.6839  127.8624 C   0  0  1  0  0  0  0  0  0  0  0  0
  166.7624  158.8219  126.5018 C   0  0  0  0  0  0  0  0  0  0  0  0
  165.0585  159.6882  128.1232 C   0  0  2  0  0  0  0  0  0  0  0  0
  164.7330  159.5922  129.4769 O   0  0  0  0  0  0  0  0  0  0  0  0
  163.8580  159.4003  127.2811 C   0  0  1  0  0  0  0  0  0  0  0  0
  163.9629  160.0278  126.0295 O   0  0  0  0  0  0  0  0  0  0  0  0
  163.5132  157.9525  127.1661 C   0  0  1  0  0  0  0  0  0  0  0  0
  162.8866  157.7416  125.9335 O   0  0  0  0  0  0  0  0  0  0  0  0
  170.0146  146.8173  127.0520 C   0  0  0  0  0  0  0  0  0  0  0  0
  170.2438  146.0820  125.9130 C   0  0  0  0  0  0  0  0  0  0  0  0
  170.6261  144.8055  125.9562 O   0  0  0  0  0  0  0  0  0  0  0  0
  170.8046  144.1819  127.0828 C   0  0  0  0  0  0  0  0  0  0  0  0
  171.1656  142.9774  127.0533 O   0  0  0  0  0  0  0  0  0  0  0  0
  170.5892  144.8713  128.2517 C   0  0  0  0  0  0  0  0  0  0  0  0
  170.1933  146.1912  128.2684 C   0  0  0  0  0  0  0  0  0  0  0  0
  1  2  1  0
  2  3  1  0
  3  4  1  0
  4  5  1  6
  4  6  1  0
  6  7  1  6
  7  8  1  0
  8  9  1  0
  9 10  2  0
 10 11  1  0
 11 12  1  0
 12 13  1  0
 13 14  1  0
 14 15  1  1
 14 16  1  0
 16 17  1  1
 17 18  1  0
 18 19  1  0
 19 20  1  1
 11 21  1  1
 22 21  1  1
 22 23  1  0
 23 24  1  0
 24 25  1  6
 24 26  1  0
 26 27  1  1
 26 28  1  0
 28 29  1  6
 28 30  1  0
 30 31  1  6
  1 32  1  6
 32 33  2  0
 33 34  1  0
 34 35  1  0
 35 36  2  0
 35 37  1  0
 37 38  2  0
 19  1  1  0
 30 22  1  0
 38 32  1  0
 19  4  1  0
 16  6  1  0
 14  9  1  0
M  END
$$$$
