
     RDKit          3D

 38 43  0  0  0  0  0  0  0  0999 V2000
  172.2607  148.5826  121.7653 C   0  0  1  0  0  0  0  0  0  0  0  0
  171.1719  147.9196  120.9922 C   0  0  0  0  0  0  0  0  0  0  0  0
  170.0779  147.7261  122.0549 C   0  0  0  0  0  0  0  0  0  0  0  0
  170.9081  147.2586  123.2115 C   0  0  2  0  0  0  0  0  0  0  0  0
  171.3145  145.9426  122.8932 O   0  0  0  0  0  0  0  0  0  0  0  0
  170.1694  147.1750  124.5158 C   0  0  2  0  0  0  0  0  0  0  0  0
  169.0184  146.2122  124.4019 C   0  0  0  0  0  0  0  0  0  0  0  0
  168.1030  146.2131  125.5774 C   0  0  0  0  0  0  0  0  0  0  0  0
  167.8859  147.5847  126.1261 C   0  0  0  0  0  0  0  0  0  0  0  0
  166.6374  147.9191  126.4342 C   0  0  0  0  0  0  0  0  0  0  0  0
  166.2811  149.2538  126.9894 C   0  0  2  0  0  0  0  0  0  0  0  0
  167.4911  149.9359  127.5812 C   0  0  0  0  0  0  0  0  0  0  0  0
  168.5823  149.9283  126.5589 C   0  0  0  0  0  0  0  0  0  0  0  0
  169.0426  148.4991  126.3029 C   0  0  1  0  0  0  0  0  0  0  0  0
  169.8949  148.1055  127.4884 C   0  0  0  0  0  0  0  0  0  0  0  0
  169.8208  148.5276  125.0191 C   0  0  1  0  0  0  0  0  0  0  0  0
  171.1209  149.2787  125.2506 C   0  0  0  0  0  0  0  0  0  0  0  0
  171.9780  149.3776  124.0511 C   0  0  0  0  0  0  0  0  0  0  0  0
  172.1008  148.1284  123.2247 C   0  0  2  0  0  0  0  0  0  0  0  0
  173.3007  147.2928  123.6519 C   0  0  0  0  0  0  0  0  0  0  0  0
  165.2926  149.0759  127.9318 O   0  0  0  0  0  0  0  0  0  0  0  0
  164.2049  148.3420  127.4815 C   0  0  2  0  0  0  0  0  0  0  0  0
  163.1199  149.2033  127.3961 O   0  0  0  0  0  0  0  0  0  0  0  0
  161.9544  148.5692  127.0252 C   0  0  1  0  0  0  0  0  0  0  0  0
  162.0211  147.8812  125.6976 C   0  0  0  0  0  0  0  0  0  0  0  0
  161.5414  147.6477  128.1467 C   0  0  2  0  0  0  0  0  0  0  0  0
  161.3133  148.4480  129.2671 O   0  0  0  0  0  0  0  0  0  0  0  0
  162.6111  146.6452  128.4365 C   0  0  1  0  0  0  0  0  0  0  0  0
  162.4684  145.5114  127.6208 O   0  0  0  0  0  0  0  0  0  0  0  0
  163.9991  147.1940  128.4124 C   0  0  1  0  0  0  0  0  0  0  0  0
  164.8745  146.1716  128.0317 O   0  0  0  0  0  0  0  0  0  0  0  0
  173.5948  148.3275  121.2227 C   0  0  0  0  0  0  0  0  0  0  0  0
  174.4418  147.4577  121.8683 C   0  0  0  0  0  0  0  0  0  0  0  0
  175.6686  147.1945  121.4176 O   0  0  0  0  0  0  0  0  0  0  0  0
  176.1347  147.7478  120.3376 C   0  0  0  0  0  0  0  0  0  0  0  0
  177.3008  147.4564  119.9670 O   0  0  0  0  0  0  0  0  0  0  0  0
  175.3284  148.6254  119.6536 C   0  0  0  0  0  0  0  0  0  0  0  0
  174.0526  148.9355  120.0720 C   0  0  0  0  0  0  0  0  0  0  0  0
  1  2  1  0
  2  3  1  0
  3  4  1  0
  4  5  1  6
  4  6  1  0
  6  7  1  6
  7  8  1  0
  8  9  1  0
  9 10  2  0
 10 11  1  0
 11 12  1  0
 12 13  1  0
 13 14  1  0
 14 15  1  1
 14 16  1  0
 16 17  1  1
 17 18  1  0
 18 19  1  0
 19 20  1  1
 11 21  1  1
 22 21  1  1
 22 23  1  0
 23 24  1  0
 24 25  1  6
 24 26  1  0
 26 27  1  1
 26 28  1  0
 28 29  1  6
 28 30  1  0
 30 31  1  6
  1 32  1  6
 32 33  2  0
 33 34  1  0
 34 35  1  0
 35 36  2  0
 35 37  1  0
 37 38  2  0
 19  1  1  0
 30 22  1  0
 38 32  1  0
 19  4  1  0
 16  6  1  0
 14  9  1  0
M  END
$$$$
