
     RDKit          3D

 38 43  0  0  0  0  0  0  0  0999 V2000
  189.9865  162.0450  134.8083 C   0  0  1  0  0  0  0  0  0  0  0  0
  190.8719  161.3459  135.7831 C   0  0  0  0  0  0  0  0  0  0  0  0
  190.0462  161.3948  137.0790 C   0  0  0  0  0  0  0  0  0  0  0  0
  189.5416  162.8047  137.0217 C   0  0  2  0  0  0  0  0  0  0  0  0
  190.6571  163.6294  137.2936 O   0  0  0  0  0  0  0  0  0  0  0  0
  188.5019  163.1371  138.0523 C   0  0  2  0  0  0  0  0  0  0  0  0
  189.0588  162.9406  139.4365 C   0  0  0  0  0  0  0  0  0  0  0  0
  188.0451  163.0471  140.5232 C   0  0  0  0  0  0  0  0  0  0  0  0
  186.7390  162.4316  140.1427 C   0  0  0  0  0  0  0  0  0  0  0  0
  186.1479  161.6637  141.0518 C   0  0  0  0  0  0  0  0  0  0  0  0
  184.8437  160.9899  140.8031 C   0  0  2  0  0  0  0  0  0  0  0  0
  184.1003  161.6495  139.6665 C   0  0  0  0  0  0  0  0  0  0  0  0
  185.0202  161.7374  138.4910 C   0  0  0  0  0  0  0  0  0  0  0  0
  186.1645  162.6944  138.7989 C   0  0  1  0  0  0  0  0  0  0  0  0
  185.5939  164.0909  138.6940 C   0  0  0  0  0  0  0  0  0  0  0  0
  187.2275  162.4288  137.7721 C   0  0  1  0  0  0  0  0  0  0  0  0
  186.7294  162.9018  136.4171 C   0  0  0  0  0  0  0  0  0  0  0  0
  187.6924  162.6897  135.3168 C   0  0  0  0  0  0  0  0  0  0  0  0
  189.1255  163.0237  135.6224 C   0  0  2  0  0  0  0  0  0  0  0  0
  189.4568  164.4609  135.2414 C   0  0  0  0  0  0  0  0  0  0  0  0
  184.1134  161.0259  141.9702 O   0  0  0  0  0  0  0  0  0  0  0  0
  182.8083  161.4680  141.8095 C   0  0  2  0  0  0  0  0  0  0  0  0
  182.8269  162.8557  141.8267 O   0  0  0  0  0  0  0  0  0  0  0  0
  181.5700  163.4140  141.7465 C   0  0  1  0  0  0  0  0  0  0  0  0
  180.8064  163.0421  140.5141 C   0  0  0  0  0  0  0  0  0  0  0  0
  180.8279  163.0901  143.0201 C   0  0  2  0  0  0  0  0  0  0  0  0
  181.5432  163.6736  144.0668 O   0  0  0  0  0  0  0  0  0  0  0  0
  180.7305  161.6124  143.2211 C   0  0  1  0  0  0  0  0  0  0  0  0
  179.5961  161.0937  142.5766 O   0  0  0  0  0  0  0  0  0  0  0  0
  181.9731  160.8569  142.8845 C   0  0  1  0  0  0  0  0  0  0  0  0
  181.6122  159.5713  142.4678 O   0  0  0  0  0  0  0  0  0  0  0  0
  190.7189  162.6879  133.7177 C   0  0  0  0  0  0  0  0  0  0  0  0
  190.3640  162.4371  132.4131 C   0  0  0  0  0  0  0  0  0  0  0  0
  191.0020  162.9941  131.3836 O   0  0  0  0  0  0  0  0  0  0  0  0
  191.9998  163.8094  131.5562 C   0  0  0  0  0  0  0  0  0  0  0  0
  192.5584  164.3004  130.5418 O   0  0  0  0  0  0  0  0  0  0  0  0
  192.3951  164.0944  132.8410 C   0  0  0  0  0  0  0  0  0  0  0  0
  191.7735  163.5485  133.9430 C   0  0  0  0  0  0  0  0  0  0  0  0
  1  2  1  0
  2  3  1  0
  3  4  1  0
  4  5  1  1
  4  6  1  0
  6  7  1  1
  7  8  1  0
  8  9  1  0
  9 10  2  0
 10 11  1  0
 11 12  1  0
 12 13  1  0
 13 14  1  0
 14 15  1  1
 14 16  1  0
 16 17  1  6
 17 18  1  0
 18 19  1  0
 19 20  1  6
 11 21  1  1
 22 21  1  1
 22 23  1  0
 23 24  1  0
 24 25  1  6
 24 26  1  0
 26 27  1  1
 26 28  1  0
 28 29  1  6
 28 30  1  0
 30 31  1  6
  1 32  1  6
 32 33  2  0
 33 34  1  0
 34 35  1  0
 35 36  2  0
 35 37  1  0
 37 38  2  0
 19  1  1  0
 30 22  1  0
 38 32  1  0
 19  4  1  0
 16  6  1  0
 14  9  1  0
M  END
$$$$
