
     RDKit          3D

 53 58  0  0  0  0  0  0  0  0999 V2000
  129.4475  143.6241  133.5291 C   0  0  2  0  0  0  0  0  0  0  0  0
  128.4764  143.9818  132.4614 C   0  0  0  0  0  0  0  0  0  0  0  0
  128.5836  142.7465  131.5491 C   0  0  2  0  0  0  0  0  0  0  0  0
  128.4898  141.6658  132.6391 C   0  0  0  0  0  0  0  0  0  0  0  0
  129.5273  142.1716  133.5524 N   0  0  0  0  0  0  0  0  0  0  0  0
  130.3411  141.2512  134.2272 C   0  0  0  0  0  0  0  0  0  0  0  0
  131.2738  141.6840  134.9458 O   0  0  0  0  0  0  0  0  0  0  0  0
  130.1643  139.7537  134.1429 C   0  0  1  0  0  0  0  0  0  0  0  0
  131.0045  139.2659  133.1142 N   0  0  0  0  0  0  0  0  0  0  0  0
  131.6430  138.0355  132.9353 C   0  0  0  0  0  0  0  0  0  0  0  0
  132.9249  138.0148  132.7901 O   0  0  0  0  0  0  0  0  0  0  0  0
  131.0602  136.7730  132.8899 O   0  0  0  0  0  0  0  0  0  0  0  0
  129.9068  136.4198  132.1660 C   0  0  0  0  0  0  0  0  0  0  0  0
  130.2034  135.5611  130.9661 C   0  0  0  0  0  0  0  0  0  0  0  0
  128.9725  134.7189  130.6992 C   0  0  0  0  0  0  0  0  0  0  0  0
  131.3364  134.6262  131.3213 C   0  0  0  0  0  0  0  0  0  0  0  0
  130.5258  136.3432  129.7351 C   0  0  0  0  0  0  0  0  0  0  0  0
  129.2757  136.6930  128.9348 C   0  0  0  0  0  0  0  0  0  0  0  0
  129.6448  137.6479  127.8392 C   0  0  0  0  0  0  0  0  0  0  0  0
  128.4890  138.5935  127.5390 C   0  0  0  0  0  0  0  0  0  0  0  0
  128.9311  139.7658  126.7573 C   0  0  0  0  0  0  0  0  0  0  0  0
  129.0314  141.0320  127.2198 C   0  0  0  0  0  0  0  0  0  0  0  0
  128.7394  141.5381  128.5552 C   0  0  0  0  0  0  0  0  0  0  0  0
  129.5587  142.7333  128.6259 N   0  0  0  0  0  0  0  0  0  0  0  0
  129.4340  143.3455  127.3051 C   0  0  0  0  0  0  0  0  0  0  0  0
  129.4494  142.1005  126.4546 C   0  0  0  0  0  0  0  0  0  0  0  0
  129.7810  141.8428  125.1402 C   0  0  0  0  0  0  0  0  0  0  0  0
  129.6985  140.5677  124.6104 C   0  0  0  0  0  0  0  0  0  0  0  0
  129.2737  139.5387  125.4248 C   0  0  0  0  0  0  0  0  0  0  0  0
  130.2881  143.1304  129.7852 C   0  0  0  0  0  0  0  0  0  0  0  0
  131.2987  143.9128  129.6799 O   0  0  0  0  0  0  0  0  0  0  0  0
  129.8598  142.6401  130.9975 O   0  0  0  0  0  0  0  0  0  0  0  0
  130.3368  139.1673  135.5022 C   0  0  0  0  0  0  0  0  0  0  0  0
  129.3457  139.6429  136.5128 C   0  0  0  0  0  0  0  0  0  0  0  0
  131.7672  139.2156  135.9561 C   0  0  0  0  0  0  0  0  0  0  0  0
  130.0386  137.6598  135.3247 C   0  0  0  0  0  0  0  0  0  0  0  0
  129.1457  144.1733  134.8580 C   0  0  0  0  0  0  0  0  0  0  0  0
  130.1162  144.2995  135.6755 O   0  0  0  0  0  0  0  0  0  0  0  0
  127.8715  144.5627  135.2782 N   0  0  0  0  0  0  0  0  0  0  0  0
  127.6539  146.0089  135.6301 C   0  0  2  0  0  0  0  0  0  0  0  0
  127.8889  146.2309  137.0632 C   0  0  0  0  0  0  0  0  0  0  0  0
  126.4749  146.3043  136.4428 C   0  0  1  0  0  0  0  0  0  0  0  0
  125.8736  147.6425  136.7095 C   0  0  0  0  0  0  0  0  0  0  0  0
  124.4894  147.6396  137.2663 C   0  0  0  0  0  0  0  0  0  0  0  0
  128.0197  146.8982  134.5396 C   0  0  0  0  0  0  0  0  0  0  0  0
  128.8524  146.6469  133.6258 O   0  0  0  0  0  0  0  0  0  0  0  0
  127.3891  148.2059  134.4609 N   0  0  0  0  0  0  0  0  0  0  0  0
  128.1924  149.4948  133.6423 S   0  0  0  0  0  6  0  0  0  0  0  0
  127.1845  150.4205  132.9852 O   0  0  0  0  0  0  0  0  0  0  0  0
  129.0422  150.2851  134.5927 O   0  0  0  0  0  0  0  0  0  0  0  0
  129.2713  148.7953  132.4207 C   0  0  0  0  0  0  0  0  0  0  0  0
  130.7727  148.9784  132.7374 C   0  0  0  0  0  0  0  0  0  0  0  0
  130.1116  147.6306  132.7142 C   0  0  0  0  0  0  0  0  0  0  0  0
  1  2  1  0
  3  2  1  1
  3  4  1  0
  4  5  1  0
  5  6  1  0
  6  7  2  0
  6  8  1  0
  8  9  1  0
  9 10  1  0
 10 11  2  0
 10 12  1  0
 12 13  1  0
 13 14  1  0
 14 15  1  0
 14 16  1  0
 14 17  1  0
 17 18  1  0
 18 19  1  0
 19 20  1  0
 20 21  1  0
 21 22  2  0
 22 23  1  0
 23 24  1  0
 24 25  1  0
 25 26  1  0
 26 27  2  0
 27 28  1  0
 28 29  2  0
 24 30  1  0
 30 31  2  0
 30 32  1  0
  8 33  1  1
 33 34  1  0
 33 35  1  0
 33 36  1  0
  1 37  1  1
 37 38  2  0
 37 39  1  0
 40 39  1  6
 40 41  1  0
 41 42  1  0
 42 43  1  6
 43 44  1  0
 40 45  1  0
 45 46  2  0
 45 47  1  0
 47 48  1  0
 48 49  2  0
 48 50  2  0
 48 51  1  0
 51 52  1  0
 52 53  1  0
  5  1  1  0
 29 21  1  0
 42 40  1  0
 53 51  1  0
 32  3  1  0
 26 22  1  0
M  END
$$$$
