
     RDKit          3D

 53 58  0  0  0  0  0  0  0  0999 V2000
  128.7234  145.5239  132.6022 C   0  0  2  0  0  0  0  0  0  0  0  0
  128.1838  145.3207  131.2317 C   0  0  0  0  0  0  0  0  0  0  0  0
  128.6331  143.8742  130.9568 C   0  0  2  0  0  0  0  0  0  0  0  0
  128.1846  143.2532  132.2902 C   0  0  0  0  0  0  0  0  0  0  0  0
  128.8219  144.2069  133.2125 N   0  0  0  0  0  0  0  0  0  0  0  0
  129.3654  143.7271  134.4121 C   0  0  0  0  0  0  0  0  0  0  0  0
  129.9748  144.5278  135.1612 O   0  0  0  0  0  0  0  0  0  0  0  0
  129.2627  142.2901  134.8654 C   0  0  1  0  0  0  0  0  0  0  0  0
  130.4223  141.6050  134.4317 N   0  0  0  0  0  0  0  0  0  0  0  0
  131.1098  140.5078  134.9578 C   0  0  0  0  0  0  0  0  0  0  0  0
  132.3606  140.6371  135.2467 O   0  0  0  0  0  0  0  0  0  0  0  0
  130.6084  139.2377  135.2247 O   0  0  0  0  0  0  0  0  0  0  0  0
  129.7926  138.4739  134.3701 C   0  0  0  0  0  0  0  0  0  0  0  0
  130.5122  137.3013  133.7602 C   0  0  0  0  0  0  0  0  0  0  0  0
  129.4735  136.2381  133.4666 C   0  0  0  0  0  0  0  0  0  0  0  0
  131.4674  136.7440  134.7901 C   0  0  0  0  0  0  0  0  0  0  0  0
  131.2309  137.6328  132.4934 C   0  0  0  0  0  0  0  0  0  0  0  0
  130.3361  137.4741  131.2687 C   0  0  0  0  0  0  0  0  0  0  0  0
  131.0469  138.0204  130.0667 C   0  0  0  0  0  0  0  0  0  0  0  0
  130.0508  138.6037  129.0729 C   0  0  0  0  0  0  0  0  0  0  0  0
  130.7142  139.4736  128.0810 C   0  0  0  0  0  0  0  0  0  0  0  0
  130.6170  140.8205  128.0206 C   0  0  0  0  0  0  0  0  0  0  0  0
  129.8616  141.7175  128.8864 C   0  0  0  0  0  0  0  0  0  0  0  0
  130.5768  142.9715  128.7425 N   0  0  0  0  0  0  0  0  0  0  0  0
  130.9126  143.0447  127.3224 C   0  0  0  0  0  0  0  0  0  0  0  0
  131.2545  141.5969  127.0756 C   0  0  0  0  0  0  0  0  0  0  0  0
  132.0341  140.9424  126.1441 C   0  0  0  0  0  0  0  0  0  0  0  0
  132.1719  139.5661  126.1554 C   0  0  0  0  0  0  0  0  0  0  0  0
  131.5098  138.8425  127.1253 C   0  0  0  0  0  0  0  0  0  0  0  0
  130.8415  143.8648  129.8222 C   0  0  0  0  0  0  0  0  0  0  0  0
  131.8067  144.7057  129.7473 O   0  0  0  0  0  0  0  0  0  0  0  0
  130.0239  143.7788  130.9257 O   0  0  0  0  0  0  0  0  0  0  0  0
  128.9574  142.2619  136.3241 C   0  0  0  0  0  0  0  0  0  0  0  0
  128.8293  140.8920  136.9042 C   0  0  0  0  0  0  0  0  0  0  0  0
  127.8417  143.2009  136.6814 C   0  0  0  0  0  0  0  0  0  0  0  0
  130.2071  142.8711  137.0026 C   0  0  0  0  0  0  0  0  0  0  0  0
  127.9603  146.4567  133.4425 C   0  0  0  0  0  0  0  0  0  0  0  0
  127.5327  147.5258  132.8944 O   0  0  0  0  0  0  0  0  0  0  0  0
  127.6762  146.2466  134.7941 N   0  0  0  0  0  0  0  0  0  0  0  0
  128.5127  146.9702  135.8137 C   0  0  2  0  0  0  0  0  0  0  0  0
  129.9424  146.7931  135.5258 C   0  0  0  0  0  0  0  0  0  0  0  0
  129.2629  146.1299  136.7458 C   0  0  1  0  0  0  0  0  0  0  0  0
  129.9450  146.5587  138.0006 C   0  0  0  0  0  0  0  0  0  0  0  0
  131.0253  145.6588  138.4994 C   0  0  0  0  0  0  0  0  0  0  0  0
  127.8643  148.1796  136.2942 C   0  0  0  0  0  0  0  0  0  0  0  0
  128.4430  149.2543  136.6130 O   0  0  0  0  0  0  0  0  0  0  0  0
  126.4171  148.1903  136.4330 N   0  0  0  0  0  0  0  0  0  0  0  0
  125.5055  149.5043  135.7856 S   0  0  0  0  0  6  0  0  0  0  0  0
  124.0207  149.2899  136.0177 O   0  0  0  0  0  0  0  0  0  0  0  0
  125.9205  150.8030  136.4108 O   0  0  0  0  0  0  0  0  0  0  0  0
  125.8452  149.6184  134.0485 C   0  0  0  0  0  0  0  0  0  0  0  0
  126.9991  150.5860  133.7016 C   0  0  0  0  0  0  0  0  0  0  0  0
  127.0922  149.1049  133.4741 C   0  0  0  0  0  0  0  0  0  0  0  0
  1  2  1  0
  3  2  1  1
  3  4  1  0
  4  5  1  0
  5  6  1  0
  6  7  2  0
  6  8  1  0
  8  9  1  0
  9 10  1  0
 10 11  2  0
 10 12  1  0
 12 13  1  0
 13 14  1  0
 14 15  1  0
 14 16  1  0
 14 17  1  0
 17 18  1  0
 18 19  1  0
 19 20  1  0
 20 21  1  0
 21 22  2  0
 22 23  1  0
 23 24  1  0
 24 25  1  0
 25 26  1  0
 26 27  2  0
 27 28  1  0
 28 29  2  0
 24 30  1  0
 30 31  2  0
 30 32  1  0
  8 33  1  1
 33 34  1  0
 33 35  1  0
 33 36  1  0
  1 37  1  1
 37 38  2  0
 37 39  1  0
 40 39  1  6
 40 41  1  0
 41 42  1  0
 42 43  1  1
 43 44  1  0
 40 45  1  0
 45 46  2  0
 45 47  1  0
 47 48  1  0
 48 49  2  0
 48 50  2  0
 48 51  1  0
 51 52  1  0
 52 53  1  0
  5  1  1  0
 29 21  1  0
 42 40  1  0
 53 51  1  0
 32  3  1  0
 26 22  1  0
M  END
$$$$
