
     RDKit          3D

 53 58  0  0  0  0  0  0  0  0999 V2000
  146.2690  167.2790  131.8587 C   0  0  2  0  0  0  0  0  0  0  0  0
  147.5347  166.5802  132.2053 C   0  0  0  0  0  0  0  0  0  0  0  0
  148.3663  166.8446  130.9371 C   0  0  2  0  0  0  0  0  0  0  0  0
  148.0812  168.3498  130.8035 C   0  0  0  0  0  0  0  0  0  0  0  0
  146.6126  168.3133  130.8949 N   0  0  0  0  0  0  0  0  0  0  0  0
  145.8640  169.2004  130.1091 C   0  0  0  0  0  0  0  0  0  0  0  0
  144.6125  169.1169  130.1308 O   0  0  0  0  0  0  0  0  0  0  0  0
  146.4758  170.2631  129.2275 C   0  0  1  0  0  0  0  0  0  0  0  0
  146.6222  169.7282  127.9259 N   0  0  0  0  0  0  0  0  0  0  0  0
  146.6126  170.3283  126.6636 C   0  0  0  0  0  0  0  0  0  0  0  0
  145.7599  169.9187  125.7861 O   0  0  0  0  0  0  0  0  0  0  0  0
  147.4332  171.3527  126.2020 O   0  0  0  0  0  0  0  0  0  0  0  0
  148.8281  171.4327  126.3660 C   0  0  0  0  0  0  0  0  0  0  0  0
  149.5869  171.1922  125.0888 C   0  0  0  0  0  0  0  0  0  0  0  0
  150.9007  171.9388  125.1977 C   0  0  0  0  0  0  0  0  0  0  0  0
  148.8015  171.7999  123.9497 C   0  0  0  0  0  0  0  0  0  0  0  0
  149.8748  169.7502  124.8259 C   0  0  0  0  0  0  0  0  0  0  0  0
  151.1861  169.3024  125.4629 C   0  0  0  0  0  0  0  0  0  0  0  0
  151.3073  167.8127  125.3426 C   0  0  0  0  0  0  0  0  0  0  0  0
  152.0729  167.2387  126.5277 C   0  0  0  0  0  0  0  0  0  0  0  0
  151.8865  165.7784  126.6431 C   0  0  0  0  0  0  0  0  0  0  0  0
  151.1670  165.1465  127.5972 C   0  0  0  0  0  0  0  0  0  0  0  0
  150.4233  165.7262  128.7087 C   0  0  0  0  0  0  0  0  0  0  0  0
  149.4319  164.7054  128.9916 N   0  0  0  0  0  0  0  0  0  0  0  0
  150.1536  163.4421  128.8582 C   0  0  0  0  0  0  0  0  0  0  0  0
  151.0181  163.7773  127.6690 C   0  0  0  0  0  0  0  0  0  0  0  0
  151.6483  163.0231  126.7005 C   0  0  0  0  0  0  0  0  0  0  0  0
  152.3983  163.6132  125.6990 C   0  0  0  0  0  0  0  0  0  0  0  0
  152.5110  164.9878  125.6790 C   0  0  0  0  0  0  0  0  0  0  0  0
  148.0721  164.9858  129.3176 C   0  0  0  0  0  0  0  0  0  0  0  0
  147.1651  164.0972  129.1386 O   0  0  0  0  0  0  0  0  0  0  0  0
  147.7902  166.2340  129.8237 O   0  0  0  0  0  0  0  0  0  0  0  0
  145.6878  171.5208  129.3653 C   0  0  0  0  0  0  0  0  0  0  0  0
  146.2567  172.5058  130.3327 C   0  0  0  0  0  0  0  0  0  0  0  0
  144.2216  171.2475  129.5380 C   0  0  0  0  0  0  0  0  0  0  0  0
  145.7925  172.2078  127.9832 C   0  0  0  0  0  0  0  0  0  0  0  0
  145.5241  167.8262  133.0008 C   0  0  0  0  0  0  0  0  0  0  0  0
  144.5162  167.1645  133.4161 O   0  0  0  0  0  0  0  0  0  0  0  0
  145.8490  169.0172  133.6548 N   0  0  0  0  0  0  0  0  0  0  0  0
  146.7524  168.9414  134.8552 C   0  0  2  0  0  0  0  0  0  0  0  0
  148.1043  169.4026  134.5120 C   0  0  0  0  0  0  0  0  0  0  0  0
  147.7959  167.9181  134.8133 C   0  0  1  0  0  0  0  0  0  0  0  0
  148.6428  167.4444  135.9455 C   0  0  0  0  0  0  0  0  0  0  0  0
  148.7292  165.9659  136.1251 C   0  0  0  0  0  0  0  0  0  0  0  0
  146.0358  169.1907  136.0955 C   0  0  0  0  0  0  0  0  0  0  0  0
  146.5132  169.0954  137.2594 O   0  0  0  0  0  0  0  0  0  0  0  0
  144.6390  169.5886  136.0293 N   0  0  0  0  0  0  0  0  0  0  0  0
  143.8700  170.2465  137.4267 S   0  0  0  0  0  6  0  0  0  0  0  0
  144.9010  170.8075  138.3894 O   0  0  0  0  0  0  0  0  0  0  0  0
  142.9073  171.3321  137.0467 O   0  0  0  0  0  0  0  0  0  0  0  0
  142.9359  168.9581  138.2098 C   0  0  0  0  0  0  0  0  0  0  0  0
  143.7800  167.7222  138.5942 C   0  0  0  0  0  0  0  0  0  0  0  0
  143.1375  168.6110  139.6196 C   0  0  0  0  0  0  0  0  0  0  0  0
  1  2  1  0
  3  2  1  1
  3  4  1  0
  4  5  1  0
  5  6  1  0
  6  7  2  0
  6  8  1  0
  8  9  1  0
  9 10  1  0
 10 11  2  0
 10 12  1  0
 12 13  1  0
 13 14  1  0
 14 15  1  0
 14 16  1  0
 14 17  1  0
 17 18  1  0
 18 19  1  0
 19 20  1  0
 20 21  1  0
 21 22  2  0
 22 23  1  0
 23 24  1  0
 24 25  1  0
 25 26  1  0
 26 27  2  0
 27 28  1  0
 28 29  2  0
 24 30  1  0
 30 31  2  0
 30 32  1  0
  8 33  1  6
 33 34  1  0
 33 35  1  0
 33 36  1  0
  1 37  1  1
 37 38  2  0
 37 39  1  0
 40 39  1  6
 40 41  1  0
 41 42  1  0
 42 43  1  1
 43 44  1  0
 40 45  1  0
 45 46  2  0
 45 47  1  0
 47 48  1  0
 48 49  2  0
 48 50  2  0
 48 51  1  0
 51 52  1  0
 52 53  1  0
  5  1  1  0
 29 21  1  0
 42 40  1  0
 53 51  1  0
 32  3  1  0
 26 22  1  0
M  END
$$$$
