
     RDKit          3D

 53 58  0  0  0  0  0  0  0  0999 V2000
  117.1297  168.2482  143.1805 C   0  0  2  0  0  0  0  0  0  0  0  0
  116.9376  169.6942  143.4681 C   0  0  0  0  0  0  0  0  0  0  0  0
  117.2406  169.7305  144.9770 C   0  0  2  0  0  0  0  0  0  0  0  0
  118.5329  168.8972  144.9564 C   0  0  0  0  0  0  0  0  0  0  0  0
  118.0461  167.7391  144.1895 N   0  0  0  0  0  0  0  0  0  0  0  0
  118.5065  166.4601  144.5311 C   0  0  0  0  0  0  0  0  0  0  0  0
  118.0334  165.4674  143.9274 O   0  0  0  0  0  0  0  0  0  0  0  0
  119.5483  166.1980  145.5926 C   0  0  1  0  0  0  0  0  0  0  0  0
  118.8814  165.9412  146.8138 N   0  0  0  0  0  0  0  0  0  0  0  0
  119.2308  165.1660  147.9230 C   0  0  0  0  0  0  0  0  0  0  0  0
  118.4324  164.2258  148.3018 O   0  0  0  0  0  0  0  0  0  0  0  0
  120.3725  165.2736  148.7108 O   0  0  0  0  0  0  0  0  0  0  0  0
  120.9186  166.4671  149.2174 C   0  0  0  0  0  0  0  0  0  0  0  0
  120.7256  166.6205  150.7021 C   0  0  0  0  0  0  0  0  0  0  0  0
  121.8590  167.4840  151.2171 C   0  0  0  0  0  0  0  0  0  0  0  0
  120.8553  165.2566  151.3399 C   0  0  0  0  0  0  0  0  0  0  0  0
  119.4279  167.2599  151.0742 C   0  0  0  0  0  0  0  0  0  0  0  0
  119.5324  168.7805  151.1255 C   0  0  0  0  0  0  0  0  0  0  0  0
  118.1606  169.3619  151.2939 C   0  0  0  0  0  0  0  0  0  0  0  0
  118.0637  170.7175  150.6060 C   0  0  0  0  0  0  0  0  0  0  0  0
  116.6600  171.1378  150.4221 C   0  0  0  0  0  0  0  0  0  0  0  0
  115.9979  171.1883  149.2447 C   0  0  0  0  0  0  0  0  0  0  0  0
  116.4851  170.8533  147.9124 C   0  0  0  0  0  0  0  0  0  0  0  0
  115.2630  170.5253  147.2027 N   0  0  0  0  0  0  0  0  0  0  0  0
  114.2916  171.5151  147.6624 C   0  0  0  0  0  0  0  0  0  0  0  0
  114.6841  171.5878  149.1166 C   0  0  0  0  0  0  0  0  0  0  0  0
  114.0216  171.9543  150.2701 C   0  0  0  0  0  0  0  0  0  0  0  0
  114.6465  171.9232  151.5038 C   0  0  0  0  0  0  0  0  0  0  0  0
  115.9623  171.5146  151.5692 C   0  0  0  0  0  0  0  0  0  0  0  0
  115.1452  169.4460  146.2780 C   0  0  0  0  0  0  0  0  0  0  0  0
  113.9973  168.9382  146.0157 O   0  0  0  0  0  0  0  0  0  0  0  0
  116.3039  168.9873  145.6943 O   0  0  0  0  0  0  0  0  0  0  0  0
  120.4940  165.1575  145.0981 C   0  0  0  0  0  0  0  0  0  0  0  0
  121.8559  165.6681  144.7598 C   0  0  0  0  0  0  0  0  0  0  0  0
  119.8705  164.2889  144.0440 C   0  0  0  0  0  0  0  0  0  0  0  0
  120.7071  164.2105  146.3026 C   0  0  0  0  0  0  0  0  0  0  0  0
  117.5912  167.9372  141.8208 C   0  0  0  0  0  0  0  0  0  0  0  0
  118.4002  168.7569  141.2733 O   0  0  0  0  0  0  0  0  0  0  0  0
  117.2018  166.8080  141.0962 N   0  0  0  0  0  0  0  0  0  0  0  0
  117.8862  165.5029  141.3982 C   0  0  2  0  0  0  0  0  0  0  0  0
  117.0246  164.6495  142.2273 C   0  0  0  0  0  0  0  0  0  0  0  0
  118.3108  165.3028  142.7829 C   0  0  1  0  0  0  0  0  0  0  0  0
  119.2298  164.2498  143.3029 C   0  0  0  0  0  0  0  0  0  0  0  0
  120.6665  164.3898  142.9262 C   0  0  0  0  0  0  0  0  0  0  0  0
  118.7492  165.0733  140.3097 C   0  0  0  0  0  0  0  0  0  0  0  0
  119.0980  163.8859  140.0647 O   0  0  0  0  0  0  0  0  0  0  0  0
  119.2783  166.0751  139.3984 N   0  0  0  0  0  0  0  0  0  0  0  0
  120.1138  167.4473  140.0276 S   0  0  0  0  0  6  0  0  0  0  0  0
  120.3421  168.4794  138.9380 O   0  0  0  0  0  0  0  0  0  0  0  0
  119.3417  168.0760  141.1492 O   0  0  0  0  0  0  0  0  0  0  0  0
  121.6654  166.9014  140.6911 C   0  0  0  0  0  0  0  0  0  0  0  0
  122.5337  168.0435  141.2653 C   0  0  0  0  0  0  0  0  0  0  0  0
  121.9506  166.9617  142.1277 C   0  0  0  0  0  0  0  0  0  0  0  0
  1  2  1  0
  3  2  1  6
  3  4  1  0
  4  5  1  0
  5  6  1  0
  6  7  2  0
  6  8  1  0
  8  9  1  0
  9 10  1  0
 10 11  2  0
 10 12  1  0
 12 13  1  0
 13 14  1  0
 14 15  1  0
 14 16  1  0
 14 17  1  0
 17 18  1  0
 18 19  1  0
 19 20  1  0
 20 21  1  0
 21 22  2  0
 22 23  1  0
 23 24  1  0
 24 25  1  0
 25 26  1  0
 26 27  2  0
 27 28  1  0
 28 29  2  0
 24 30  1  0
 30 31  2  0
 30 32  1  0
  8 33  1  6
 33 34  1  0
 33 35  1  0
 33 36  1  0
  1 37  1  6
 37 38  2  0
 37 39  1  0
 40 39  1  6
 40 41  1  0
 41 42  1  0
 42 43  1  6
 43 44  1  0
 40 45  1  0
 45 46  2  0
 45 47  1  0
 47 48  1  0
 48 49  2  0
 48 50  2  0
 48 51  1  0
 51 52  1  0
 52 53  1  0
  5  1  1  0
 29 21  1  0
 42 40  1  0
 53 51  1  0
 32  3  1  0
 26 22  1  0
M  END
$$$$
