
     RDKit          3D

 53 58  0  0  0  0  0  0  0  0999 V2000
  187.8536  157.8973  132.4998 C   0  0  2  0  0  0  0  0  0  0  0  0
  186.5909  157.4353  131.8651 C   0  0  0  0  0  0  0  0  0  0  0  0
  185.5529  157.9601  132.8736 C   0  0  2  0  0  0  0  0  0  0  0  0
  186.1080  159.3856  133.0308 C   0  0  0  0  0  0  0  0  0  0  0  0
  187.5135  159.0536  133.3147 N   0  0  0  0  0  0  0  0  0  0  0  0
  188.2200  159.8369  134.2378 C   0  0  0  0  0  0  0  0  0  0  0  0
  189.3932  159.5073  134.5356 O   0  0  0  0  0  0  0  0  0  0  0  0
  187.6517  161.0671  134.9046 C   0  0  1  0  0  0  0  0  0  0  0  0
  187.0863  160.6787  136.1421 N   0  0  0  0  0  0  0  0  0  0  0  0
  186.9174  161.3654  137.3476 C   0  0  0  0  0  0  0  0  0  0  0  0
  187.4271  160.8686  138.4238 O   0  0  0  0  0  0  0  0  0  0  0  0
  186.2446  162.5652  137.5564 O   0  0  0  0  0  0  0  0  0  0  0  0
  184.9795  162.9045  137.0429 C   0  0  0  0  0  0  0  0  0  0  0  0
  183.9019  162.9223  138.0932 C   0  0  0  0  0  0  0  0  0  0  0  0
  182.8409  163.9014  137.6340 C   0  0  0  0  0  0  0  0  0  0  0  0
  184.4992  163.4540  139.3756 C   0  0  0  0  0  0  0  0  0  0  0  0
  183.2619  161.5913  138.3170 C   0  0  0  0  0  0  0  0  0  0  0  0
  182.0790  161.3601  137.3826 C   0  0  0  0  0  0  0  0  0  0  0  0
  181.6212  159.9380  137.5121 C   0  0  0  0  0  0  0  0  0  0  0  0
  181.0609  159.4318  136.1893 C   0  0  0  0  0  0  0  0  0  0  0  0
  180.9576  157.9588  136.1676 C   0  0  0  0  0  0  0  0  0  0  0  0
  181.7362  157.1225  135.4454 C   0  0  0  0  0  0  0  0  0  0  0  0
  182.8310  157.4525  134.5414 C   0  0  0  0  0  0  0  0  0  0  0  0
  183.6234  156.2372  134.5484 N   0  0  0  0  0  0  0  0  0  0  0  0
  182.6413  155.1556  134.5321 C   0  0  0  0  0  0  0  0  0  0  0  0
  181.6060  155.7495  135.4537 C   0  0  0  0  0  0  0  0  0  0  0  0
  180.6164  155.2152  136.2532 C   0  0  0  0  0  0  0  0  0  0  0  0
  179.7888  156.0204  137.0148 C   0  0  0  0  0  0  0  0  0  0  0  0
  179.9668  157.3873  136.9653 C   0  0  0  0  0  0  0  0  0  0  0  0
  185.0492  156.2173  134.5687 C   0  0  0  0  0  0  0  0  0  0  0  0
  185.6779  155.1851  134.9972 O   0  0  0  0  0  0  0  0  0  0  0  0
  185.7014  157.3404  134.1139 O   0  0  0  0  0  0  0  0  0  0  0  0
  188.6964  162.1297  134.9337 C   0  0  0  0  0  0  0  0  0  0  0  0
  188.2046  163.4925  134.5721 C   0  0  0  0  0  0  0  0  0  0  0  0
  189.9477  161.7053  134.2206 C   0  0  0  0  0  0  0  0  0  0  0  0
  189.1149  162.2339  136.4193 C   0  0  0  0  0  0  0  0  0  0  0  0
  188.9501  158.1929  131.5676 C   0  0  0  0  0  0  0  0  0  0  0  0
  190.0707  157.6224  131.7793 O   0  0  0  0  0  0  0  0  0  0  0  0
  188.8418  159.0533  130.4724 N   0  0  0  0  0  0  0  0  0  0  0  0
  188.5592  160.5064  130.7395 C   0  0  2  0  0  0  0  0  0  0  0  0
  189.8088  161.2353  130.9955 C   0  0  0  0  0  0  0  0  0  0  0  0
  188.7742  160.9635  132.1116 C   0  0  1  0  0  0  0  0  0  0  0  0
  188.3292  162.2526  132.7146 C   0  0  0  0  0  0  0  0  0  0  0  0
  189.3260  162.9509  133.5775 C   0  0  0  0  0  0  0  0  0  0  0  0
  187.4088  160.9863  129.9910 C   0  0  0  0  0  0  0  0  0  0  0  0
  186.3487  161.4601  130.4843 O   0  0  0  0  0  0  0  0  0  0  0  0
  187.4460  160.9318  128.5386 N   0  0  0  0  0  0  0  0  0  0  0  0
  188.8989  161.3436  127.7043 S   0  0  0  0  0  6  0  0  0  0  0  0
  189.0848  160.4571  126.4860 O   0  0  0  0  0  0  0  0  0  0  0  0
  188.8789  162.7796  127.2715 O   0  0  0  0  0  0  0  0  0  0  0  0
  190.2614  161.1445  128.8221 C   0  0  0  0  0  0  0  0  0  0  0  0
  190.4023  159.7117  129.3837 C   0  0  0  0  0  0  0  0  0  0  0  0
  191.4271  160.3264  128.4748 C   0  0  0  0  0  0  0  0  0  0  0  0
  1  2  1  0
  3  2  1  6
  3  4  1  0
  4  5  1  0
  5  6  1  0
  6  7  2  0
  6  8  1  0
  8  9  1  0
  9 10  1  0
 10 11  2  0
 10 12  1  0
 12 13  1  0
 13 14  1  0
 14 15  1  0
 14 16  1  0
 14 17  1  0
 17 18  1  0
 18 19  1  0
 19 20  1  0
 20 21  1  0
 21 22  2  0
 22 23  1  0
 23 24  1  0
 24 25  1  0
 25 26  1  0
 26 27  2  0
 27 28  1  0
 28 29  2  0
 24 30  1  0
 30 31  2  0
 30 32  1  0
  8 33  1  1
 33 34  1  0
 33 35  1  0
 33 36  1  0
  1 37  1  6
 37 38  2  0
 37 39  1  0
 40 39  1  1
 40 41  1  0
 41 42  1  0
 42 43  1  6
 43 44  1  0
 40 45  1  0
 45 46  2  0
 45 47  1  0
 47 48  1  0
 48 49  2  0
 48 50  2  0
 48 51  1  0
 51 52  1  0
 52 53  1  0
  5  1  1  0
 29 21  1  0
 42 40  1  0
 53 51  1  0
 32  3  1  0
 26 22  1  0
M  END
$$$$
