
     RDKit          3D

 53 58  0  0  0  0  0  0  0  0999 V2000
  191.7335  158.6773  120.0185 C   0  0  2  0  0  0  0  0  0  0  0  0
  190.5098  158.1043  120.6387 C   0  0  0  0  0  0  0  0  0  0  0  0
  190.4545  158.9001  121.9553 C   0  0  2  0  0  0  0  0  0  0  0  0
  190.6935  160.3015  121.3693 C   0  0  0  0  0  0  0  0  0  0  0  0
  191.8961  160.0135  120.5709 N   0  0  0  0  0  0  0  0  0  0  0  0
  192.9010  160.9870  120.4869 C   0  0  0  0  0  0  0  0  0  0  0  0
  193.9578  160.7115  119.8697 O   0  0  0  0  0  0  0  0  0  0  0  0
  192.7910  162.3630  121.0997 C   0  0  1  0  0  0  0  0  0  0  0  0
  193.3749  162.3219  122.3879 N   0  0  0  0  0  0  0  0  0  0  0  0
  194.0153  163.2999  123.1540 C   0  0  0  0  0  0  0  0  0  0  0  0
  195.2202  163.0818  123.5608 O   0  0  0  0  0  0  0  0  0  0  0  0
  193.5095  164.5318  123.5567 O   0  0  0  0  0  0  0  0  0  0  0  0
  192.2336  164.7639  124.1020 C   0  0  0  0  0  0  0  0  0  0  0  0
  192.2695  165.0819  125.5726 C   0  0  0  0  0  0  0  0  0  0  0  0
  191.0590  165.9402  125.8779 C   0  0  0  0  0  0  0  0  0  0  0  0
  193.5047  165.9078  125.8485 C   0  0  0  0  0  0  0  0  0  0  0  0
  192.2330  163.8719  126.4478 C   0  0  0  0  0  0  0  0  0  0  0  0
  190.8061  163.4424  126.7722 C   0  0  0  0  0  0  0  0  0  0  0  0
  190.8388  162.1151  127.4691 C   0  0  0  0  0  0  0  0  0  0  0  0
  189.5948  161.3023  127.1348 C   0  0  0  0  0  0  0  0  0  0  0  0
  189.7641  159.8768  127.4813 C   0  0  0  0  0  0  0  0  0  0  0  0
  189.9066  158.8611  126.6009 C   0  0  0  0  0  0  0  0  0  0  0  0
  189.9281  158.9163  125.1445 C   0  0  0  0  0  0  0  0  0  0  0  0
  190.6726  157.7213  124.7943 N   0  0  0  0  0  0  0  0  0  0  0  0
  190.1906  156.7004  125.7217 C   0  0  0  0  0  0  0  0  0  0  0  0
  190.0625  157.5406  126.9673 C   0  0  0  0  0  0  0  0  0  0  0  0
  190.0711  157.2582  128.3179 C   0  0  0  0  0  0  0  0  0  0  0  0
  189.9295  158.2555  129.2660 C   0  0  0  0  0  0  0  0  0  0  0  0
  189.7770  159.5581  128.8388 C   0  0  0  0  0  0  0  0  0  0  0  0
  191.6442  157.6664  123.7518 C   0  0  0  0  0  0  0  0  0  0  0  0
  192.5526  156.7613  123.7580 O   0  0  0  0  0  0  0  0  0  0  0  0
  191.5577  158.6158  122.7594 O   0  0  0  0  0  0  0  0  0  0  0  0
  193.3274  163.3671  120.1376 C   0  0  0  0  0  0  0  0  0  0  0  0
  193.0128  164.7855  120.4823 C   0  0  0  0  0  0  0  0  0  0  0  0
  193.0382  162.9890  118.7136 C   0  0  0  0  0  0  0  0  0  0  0  0
  194.8651  163.2541  120.2626 C   0  0  0  0  0  0  0  0  0  0  0  0
  191.7416  158.6920  118.5494 C   0  0  0  0  0  0  0  0  0  0  0  0
  191.7185  157.5663  117.9507 O   0  0  0  0  0  0  0  0  0  0  0  0
  191.7726  159.8535  117.7738 N   0  0  0  0  0  0  0  0  0  0  0  0
  190.4844  160.6030  117.5704 C   0  0  2  0  0  0  0  0  0  0  0  0
  190.1568  161.3967  118.7624 C   0  0  0  0  0  0  0  0  0  0  0  0
  189.3413  160.1466  118.3597 C   0  0  1  0  0  0  0  0  0  0  0  0
  187.9087  160.5153  118.1719 C   0  0  0  0  0  0  0  0  0  0  0  0
  187.2001  161.0272  119.3808 C   0  0  0  0  0  0  0  0  0  0  0  0
  190.2930  160.9951  116.1834 C   0  0  0  0  0  0  0  0  0  0  0  0
  190.6378  162.0945  115.6695 O   0  0  0  0  0  0  0  0  0  0  0  0
  189.6488  160.0611  115.2742 N   0  0  0  0  0  0  0  0  0  0  0  0
  189.5846  160.4164  113.5871 S   0  0  0  0  0  6  0  0  0  0  0  0
  189.1281  159.1998  112.8021 O   0  0  0  0  0  0  0  0  0  0  0  0
  188.6505  161.5580  113.3157 O   0  0  0  0  0  0  0  0  0  0  0  0
  191.2022  160.9163  113.0589 C   0  0  0  0  0  0  0  0  0  0  0  0
  191.8963  161.9020  114.0256 C   0  0  0  0  0  0  0  0  0  0  0  0
  192.4079  160.5108  113.7873 C   0  0  0  0  0  0  0  0  0  0  0  0
  1  2  1  0
  3  2  1  6
  3  4  1  0
  4  5  1  0
  5  6  1  0
  6  7  2  0
  6  8  1  0
  8  9  1  0
  9 10  1  0
 10 11  2  0
 10 12  1  0
 12 13  1  0
 13 14  1  0
 14 15  1  0
 14 16  1  0
 14 17  1  0
 17 18  1  0
 18 19  1  0
 19 20  1  0
 20 21  1  0
 21 22  2  0
 22 23  1  0
 23 24  1  0
 24 25  1  0
 25 26  1  0
 26 27  2  0
 27 28  1  0
 28 29  2  0
 24 30  1  0
 30 31  2  0
 30 32  1  0
  8 33  1  6
 33 34  1  0
 33 35  1  0
 33 36  1  0
  1 37  1  6
 37 38  2  0
 37 39  1  0
 40 39  1  6
 40 41  1  0
 41 42  1  0
 42 43  1  6
 43 44  1  0
 40 45  1  0
 45 46  2  0
 45 47  1  0
 47 48  1  0
 48 49  2  0
 48 50  2  0
 48 51  1  0
 51 52  1  0
 52 53  1  0
  5  1  1  0
 29 21  1  0
 42 40  1  0
 53 51  1  0
 32  3  1  0
 26 22  1  0
M  END
$$$$
