
     RDKit          3D

 53 58  0  0  0  0  0  0  0  0999 V2000
  166.3406  149.2204  128.2927 C   0  0  2  0  0  0  0  0  0  0  0  0
  167.2270  150.3921  128.5210 C   0  0  0  0  0  0  0  0  0  0  0  0
  168.6124  149.7272  128.4295 C   0  0  2  0  0  0  0  0  0  0  0  0
  168.3748  148.9114  127.1478 C   0  0  0  0  0  0  0  0  0  0  0  0
  167.1126  148.2550  127.5253 N   0  0  0  0  0  0  0  0  0  0  0  0
  166.8902  146.9323  127.1181 C   0  0  0  0  0  0  0  0  0  0  0  0
  165.8488  146.3492  127.5043 O   0  0  0  0  0  0  0  0  0  0  0  0
  167.8360  146.1554  126.2334 C   0  0  1  0  0  0  0  0  0  0  0  0
  168.7155  145.4205  127.0632 N   0  0  0  0  0  0  0  0  0  0  0  0
  169.3857  144.2091  126.8715 C   0  0  0  0  0  0  0  0  0  0  0  0
  169.1954  143.2520  127.7158 O   0  0  0  0  0  0  0  0  0  0  0  0
  170.2699  143.8781  125.8496 O   0  0  0  0  0  0  0  0  0  0  0  0
  171.3256  144.6792  125.3774 C   0  0  0  0  0  0  0  0  0  0  0  0
  172.6819  144.1612  125.7737 C   0  0  0  0  0  0  0  0  0  0  0  0
  173.6674  144.6269  124.7215 C   0  0  0  0  0  0  0  0  0  0  0  0
  172.6420  142.6510  125.7351 C   0  0  0  0  0  0  0  0  0  0  0  0
  173.1413  144.6466  127.1097 C   0  0  0  0  0  0  0  0  0  0  0  0
  173.8894  145.9720  127.0114 C   0  0  0  0  0  0  0  0  0  0  0  0
  174.1335  146.5020  128.3927 C   0  0  0  0  0  0  0  0  0  0  0  0
  174.1296  148.0252  128.3918 C   0  0  0  0  0  0  0  0  0  0  0  0
  173.9858  148.5719  129.7561 C   0  0  0  0  0  0  0  0  0  0  0  0
  172.8882  149.1882  130.2488 C   0  0  0  0  0  0  0  0  0  0  0  0
  171.6200  149.4571  129.5825 C   0  0  0  0  0  0  0  0  0  0  0  0
  170.6948  149.5617  130.6951 N   0  0  0  0  0  0  0  0  0  0  0  0
  171.4306  150.2992  131.7195 C   0  0  0  0  0  0  0  0  0  0  0  0
  172.7952  149.6856  131.5318 C   0  0  0  0  0  0  0  0  0  0  0  0
  173.8983  149.5363  132.3471 C   0  0  0  0  0  0  0  0  0  0  0  0
  175.0497  148.9144  131.8989 C   0  0  0  0  0  0  0  0  0  0  0  0
  175.0835  148.4369  130.6053 C   0  0  0  0  0  0  0  0  0  0  0  0
  169.3745  149.0229  130.6851 C   0  0  0  0  0  0  0  0  0  0  0  0
  168.7717  148.7616  131.7863 O   0  0  0  0  0  0  0  0  0  0  0  0
  168.7934  148.8024  129.4574 O   0  0  0  0  0  0  0  0  0  0  0  0
  167.0434  145.3900  125.2297 C   0  0  0  0  0  0  0  0  0  0  0  0
  165.9970  146.1896  124.5258 C   0  0  0  0  0  0  0  0  0  0  0  0
  166.5659  144.0758  125.7766 C   0  0  0  0  0  0  0  0  0  0  0  0
  168.0617  145.0040  124.1309 C   0  0  0  0  0  0  0  0  0  0  0  0
  165.0560  149.5247  127.6479 C   0  0  0  0  0  0  0  0  0  0  0  0
  164.0719  148.7564  127.9077 O   0  0  0  0  0  0  0  0  0  0  0  0
  164.8474  150.5952  126.7748 N   0  0  0  0  0  0  0  0  0  0  0  0
  165.8500  151.7164  126.7780 C   0  0  2  0  0  0  0  0  0  0  0  0
  165.8683  152.3943  125.4748 C   0  0  0  0  0  0  0  0  0  0  0  0
  167.0444  151.5156  125.9589 C   0  0  1  0  0  0  0  0  0  0  0  0
  168.3008  152.3185  125.9814 C   0  0  0  0  0  0  0  0  0  0  0  0
  169.2935  152.0118  124.9107 C   0  0  0  0  0  0  0  0  0  0  0  0
  165.9686  152.3403  128.0859 C   0  0  0  0  0  0  0  0  0  0  0  0
  166.1728  151.7412  129.1772 O   0  0  0  0  0  0  0  0  0  0  0  0
  165.8467  153.7857  128.1859 N   0  0  0  0  0  0  0  0  0  0  0  0
  164.2923  154.5236  128.0596 S   0  0  0  0  0  6  0  0  0  0  0  0
  163.2759  153.7756  128.9035 O   0  0  0  0  0  0  0  0  0  0  0  0
  164.3423  155.9560  128.5015 O   0  0  0  0  0  0  0  0  0  0  0  0
  163.8035  154.5103  126.3547 C   0  0  0  0  0  0  0  0  0  0  0  0
  163.3368  155.8867  125.8297 C   0  0  0  0  0  0  0  0  0  0  0  0
  164.5798  155.2108  125.3274 C   0  0  0  0  0  0  0  0  0  0  0  0
  1  2  1  0
  3  2  1  1
  3  4  1  0
  4  5  1  0
  5  6  1  0
  6  7  2  0
  6  8  1  0
  8  9  1  0
  9 10  1  0
 10 11  2  0
 10 12  1  0
 12 13  1  0
 13 14  1  0
 14 15  1  0
 14 16  1  0
 14 17  1  0
 17 18  1  0
 18 19  1  0
 19 20  1  0
 20 21  1  0
 21 22  2  0
 22 23  1  0
 23 24  1  0
 24 25  1  0
 25 26  1  0
 26 27  2  0
 27 28  1  0
 28 29  2  0
 24 30  1  0
 30 31  2  0
 30 32  1  0
  8 33  1  6
 33 34  1  0
 33 35  1  0
 33 36  1  0
  1 37  1  6
 37 38  2  0
 37 39  1  0
 40 39  1  1
 40 41  1  0
 41 42  1  0
 42 43  1  1
 43 44  1  0
 40 45  1  0
 45 46  2  0
 45 47  1  0
 47 48  1  0
 48 49  2  0
 48 50  2  0
 48 51  1  0
 51 52  1  0
 52 53  1  0
  5  1  1  0
 29 21  1  0
 42 40  1  0
 53 51  1  0
 32  3  1  0
 26 22  1  0
M  END
$$$$
