
     RDKit          3D

 53 58  0  0  0  0  0  0  0  0999 V2000
  149.1241  170.4534  131.9891 C   0  0  2  0  0  0  0  0  0  0  0  0
  150.3945  170.7498  131.2758 C   0  0  0  0  0  0  0  0  0  0  0  0
  150.6221  169.4229  130.5293 C   0  0  2  0  0  0  0  0  0  0  0  0
  149.2008  169.2451  129.9696 C   0  0  0  0  0  0  0  0  0  0  0  0
  148.4397  169.4283  131.2160 N   0  0  0  0  0  0  0  0  0  0  0  0
  147.2902  168.6543  131.4262 C   0  0  0  0  0  0  0  0  0  0  0  0
  146.6858  168.7566  132.5208 O   0  0  0  0  0  0  0  0  0  0  0  0
  146.7263  167.6935  130.4065 C   0  0  1  0  0  0  0  0  0  0  0  0
  147.2578  166.4084  130.6677 N   0  0  0  0  0  0  0  0  0  0  0  0
  146.7491  165.1255  130.4469 C   0  0  0  0  0  0  0  0  0  0  0  0
  146.6357  164.3199  131.4484 O   0  0  0  0  0  0  0  0  0  0  0  0
  146.3294  164.5723  129.2412 O   0  0  0  0  0  0  0  0  0  0  0  0
  147.0138  164.6465  128.0144 C   0  0  0  0  0  0  0  0  0  0  0  0
  147.6274  163.3360  127.6010 C   0  0  0  0  0  0  0  0  0  0  0  0
  147.7068  163.3326  126.0880 C   0  0  0  0  0  0  0  0  0  0  0  0
  146.6939  162.2233  128.0186 C   0  0  0  0  0  0  0  0  0  0  0  0
  148.9975  163.1156  128.1539 C   0  0  0  0  0  0  0  0  0  0  0  0
  150.0806  163.6884  127.2458 C   0  0  0  0  0  0  0  0  0  0  0  0
  151.4008  163.6225  127.9537 C   0  0  0  0  0  0  0  0  0  0  0  0
  152.2952  164.7808  127.5312 C   0  0  0  0  0  0  0  0  0  0  0  0
  153.4245  164.9677  128.4643 C   0  0  0  0  0  0  0  0  0  0  0  0
  153.5673  165.9896  129.3374 C   0  0  0  0  0  0  0  0  0  0  0  0
  152.6764  167.1200  129.5680 C   0  0  0  0  0  0  0  0  0  0  0  0
  153.0012  167.5054  130.9285 N   0  0  0  0  0  0  0  0  0  0  0  0
  154.4545  167.3800  131.0112 C   0  0  0  0  0  0  0  0  0  0  0  0
  154.6401  166.1269  130.1932 C   0  0  0  0  0  0  0  0  0  0  0  0
  155.6165  165.1533  130.1410 C   0  0  0  0  0  0  0  0  0  0  0  0
  155.5254  164.0840  129.2682 C   0  0  0  0  0  0  0  0  0  0  0  0
  154.4285  164.0004  128.4362 C   0  0  0  0  0  0  0  0  0  0  0  0
  152.0315  167.9028  131.8957 C   0  0  0  0  0  0  0  0  0  0  0  0
  152.2912  167.8169  133.1486 O   0  0  0  0  0  0  0  0  0  0  0  0
  150.8275  168.3734  131.4240 O   0  0  0  0  0  0  0  0  0  0  0  0
  145.2421  167.8275  130.3822 C   0  0  0  0  0  0  0  0  0  0  0  0
  144.6327  168.2101  131.6906 C   0  0  0  0  0  0  0  0  0  0  0  0
  144.5851  166.6614  129.7018 C   0  0  0  0  0  0  0  0  0  0  0  0
  144.9675  169.0268  129.4444 C   0  0  0  0  0  0  0  0  0  0  0  0
  148.2599  171.6156  132.2359 C   0  0  0  0  0  0  0  0  0  0  0  0
  148.8264  172.7493  132.3773 O   0  0  0  0  0  0  0  0  0  0  0  0
  146.8669  171.5563  132.3244 N   0  0  0  0  0  0  0  0  0  0  0  0
  146.2627  170.8393  133.5006 C   0  0  2  0  0  0  0  0  0  0  0  0
  145.0192  171.4985  133.9220 C   0  0  0  0  0  0  0  0  0  0  0  0
  146.3050  171.5479  134.7789 C   0  0  1  0  0  0  0  0  0  0  0  0
  146.0332  170.9857  136.1330 C   0  0  0  0  0  0  0  0  0  0  0  0
  146.7788  171.6112  137.2638 C   0  0  0  0  0  0  0  0  0  0  0  0
  146.5195  169.4088  133.4599 C   0  0  0  0  0  0  0  0  0  0  0  0
  147.5204  168.8210  133.9539 O   0  0  0  0  0  0  0  0  0  0  0  0
  145.5569  168.5432  132.7979 N   0  0  0  0  0  0  0  0  0  0  0  0
  145.0582  168.8954  131.1842 S   0  0  0  0  0  6  0  0  0  0  0  0
  144.1328  167.8110  130.6625 O   0  0  0  0  0  0  0  0  0  0  0  0
  144.3548  170.2185  131.1182 O   0  0  0  0  0  0  0  0  0  0  0  0
  146.5047  169.0112  130.1644 C   0  0  0  0  0  0  0  0  0  0  0  0
  147.1523  170.4143  130.1589 C   0  0  0  0  0  0  0  0  0  0  0  0
  147.8373  169.2117  130.7411 C   0  0  0  0  0  0  0  0  0  0  0  0
  1  2  1  0
  3  2  1  1
  3  4  1  0
  4  5  1  0
  5  6  1  0
  6  7  2  0
  6  8  1  0
  8  9  1  0
  9 10  1  0
 10 11  2  0
 10 12  1  0
 12 13  1  0
 13 14  1  0
 14 15  1  0
 14 16  1  0
 14 17  1  0
 17 18  1  0
 18 19  1  0
 19 20  1  0
 20 21  1  0
 21 22  2  0
 22 23  1  0
 23 24  1  0
 24 25  1  0
 25 26  1  0
 26 27  2  0
 27 28  1  0
 28 29  2  0
 24 30  1  0
 30 31  2  0
 30 32  1  0
  8 33  1  1
 33 34  1  0
 33 35  1  0
 33 36  1  0
  1 37  1  6
 37 38  2  0
 37 39  1  0
 40 39  1  6
 40 41  1  0
 41 42  1  0
 42 43  1  1
 43 44  1  0
 40 45  1  0
 45 46  2  0
 45 47  1  0
 47 48  1  0
 48 49  2  0
 48 50  2  0
 48 51  1  0
 51 52  1  0
 52 53  1  0
  5  1  1  0
 29 21  1  0
 42 40  1  0
 53 51  1  0
 32  3  1  0
 26 22  1  0
M  END
$$$$
