
     RDKit          3D

 53 58  0  0  0  0  0  0  0  0999 V2000
  185.0547  162.4059  137.2979 C   0  0  2  0  0  0  0  0  0  0  0  0
  184.3618  162.3179  135.9853 C   0  0  0  0  0  0  0  0  0  0  0  0
  182.9219  162.0170  136.4393 C   0  0  2  0  0  0  0  0  0  0  0  0
  182.8141  163.0897  137.5360 C   0  0  0  0  0  0  0  0  0  0  0  0
  184.0476  162.7827  138.2781 N   0  0  0  0  0  0  0  0  0  0  0  0
  184.0419  162.8956  139.6752 C   0  0  0  0  0  0  0  0  0  0  0  0
  185.0698  162.5609  140.3117 O   0  0  0  0  0  0  0  0  0  0  0  0
  182.8627  163.4005  140.4724 C   0  0  1  0  0  0  0  0  0  0  0  0
  182.0892  162.2856  140.8732 N   0  0  0  0  0  0  0  0  0  0  0  0
  181.2679  162.0700  141.9833 C   0  0  0  0  0  0  0  0  0  0  0  0
  181.5159  161.0665  142.7557 O   0  0  0  0  0  0  0  0  0  0  0  0
  180.1699  162.8223  142.3885 O   0  0  0  0  0  0  0  0  0  0  0  0
  179.1347  163.2886  141.5578 C   0  0  0  0  0  0  0  0  0  0  0  0
  177.8347  162.5606  141.7702 C   0  0  0  0  0  0  0  0  0  0  0  0
  176.7179  163.5142  141.3976 C   0  0  0  0  0  0  0  0  0  0  0  0
  177.7033  162.2458  143.2425 C   0  0  0  0  0  0  0  0  0  0  0  0
  177.7014  161.3208  140.9478 C   0  0  0  0  0  0  0  0  0  0  0  0
  177.0959  161.6048  139.5773 C   0  0  0  0  0  0  0  0  0  0  0  0
  177.1862  160.3680  138.7343 C   0  0  0  0  0  0  0  0  0  0  0  0
  177.3540  160.7309  137.2645 C   0  0  0  0  0  0  0  0  0  0  0  0
  177.8208  159.5789  136.4672 C   0  0  0  0  0  0  0  0  0  0  0  0
  179.0536  159.4362  135.9314 C   0  0  0  0  0  0  0  0  0  0  0  0
  180.1878  160.3489  136.0038 C   0  0  0  0  0  0  0  0  0  0  0  0
  181.3191  159.4629  135.8040 N   0  0  0  0  0  0  0  0  0  0  0  0
  180.8825  158.5350  134.7633 C   0  0  0  0  0  0  0  0  0  0  0  0
  179.4496  158.3419  135.1914 C   0  0  0  0  0  0  0  0  0  0  0  0
  178.5184  157.3425  134.9965 C   0  0  0  0  0  0  0  0  0  0  0  0
  177.2412  157.4323  135.5201 C   0  0  0  0  0  0  0  0  0  0  0  0
  176.9030  158.5513  136.2520 C   0  0  0  0  0  0  0  0  0  0  0  0
  182.5459  159.5643  136.5240 C   0  0  0  0  0  0  0  0  0  0  0  0
  183.3214  158.5487  136.6316 O   0  0  0  0  0  0  0  0  0  0  0  0
  182.8476  160.7838  137.0857 O   0  0  0  0  0  0  0  0  0  0  0  0
  183.3558  164.3114  141.5442 C   0  0  0  0  0  0  0  0  0  0  0  0
  182.5170  164.3261  142.7795 C   0  0  0  0  0  0  0  0  0  0  0  0
  183.7063  165.6694  141.0082 C   0  0  0  0  0  0  0  0  0  0  0  0
  184.7106  163.7086  141.9848 C   0  0  0  0  0  0  0  0  0  0  0  0
  186.2130  163.3090  137.3340 C   0  0  0  0  0  0  0  0  0  0  0  0
  186.0007  164.5457  137.1068 O   0  0  0  0  0  0  0  0  0  0  0  0
  187.5221  162.9002  137.5998 N   0  0  0  0  0  0  0  0  0  0  0  0
  187.7234  161.7156  138.5049 C   0  0  2  0  0  0  0  0  0  0  0  0
  186.4292  161.1872  138.9566 C   0  0  0  0  0  0  0  0  0  0  0  0
  187.3963  161.9189  139.9153 C   0  0  1  0  0  0  0  0  0  0  0  0
  187.7436  161.0294  141.0606 C   0  0  0  0  0  0  0  0  0  0  0  0
  188.4733  161.6726  142.1918 C   0  0  0  0  0  0  0  0  0  0  0  0
  188.9004  160.9433  138.1412 C   0  0  0  0  0  0  0  0  0  0  0  0
  190.0980  161.2622  138.3769 O   0  0  0  0  0  0  0  0  0  0  0  0
  188.7213  159.6819  137.4408 N   0  0  0  0  0  0  0  0  0  0  0  0
  189.8826  159.1835  136.2662 S   0  0  0  0  0  6  0  0  0  0  0  0
  189.2785  158.1643  135.3170 O   0  0  0  0  0  0  0  0  0  0  0  0
  190.3832  160.3568  135.4773 O   0  0  0  0  0  0  0  0  0  0  0  0
  191.2726  158.4826  137.1161 C   0  0  0  0  0  0  0  0  0  0  0  0
  192.5855  159.2740  136.9214 C   0  0  0  0  0  0  0  0  0  0  0  0
  191.9007  159.1624  138.2528 C   0  0  0  0  0  0  0  0  0  0  0  0
  1  2  1  0
  3  2  1  1
  3  4  1  0
  4  5  1  0
  5  6  1  0
  6  7  2  0
  6  8  1  0
  8  9  1  0
  9 10  1  0
 10 11  2  0
 10 12  1  0
 12 13  1  0
 13 14  1  0
 14 15  1  0
 14 16  1  0
 14 17  1  0
 17 18  1  0
 18 19  1  0
 19 20  1  0
 20 21  1  0
 21 22  2  0
 22 23  1  0
 23 24  1  0
 24 25  1  0
 25 26  1  0
 26 27  2  0
 27 28  1  0
 28 29  2  0
 24 30  1  0
 30 31  2  0
 30 32  1  0
  8 33  1  1
 33 34  1  0
 33 35  1  0
 33 36  1  0
  1 37  1  6
 37 38  2  0
 37 39  1  0
 40 39  1  6
 40 41  1  0
 41 42  1  0
 42 43  1  1
 43 44  1  0
 40 45  1  0
 45 46  2  0
 45 47  1  0
 47 48  1  0
 48 49  2  0
 48 50  2  0
 48 51  1  0
 51 52  1  0
 52 53  1  0
  5  1  1  0
 29 21  1  0
 42 40  1  0
 53 51  1  0
 32  3  1  0
 26 22  1  0
M  END
$$$$
