
     RDKit          3D

 53 58  0  0  0  0  0  0  0  0999 V2000
  202.9345  134.2937  131.3148 C   0  0  2  0  0  0  0  0  0  0  0  0
  202.6957  133.4309  130.1277 C   0  0  0  0  0  0  0  0  0  0  0  0
  202.7897  132.0325  130.7645 C   0  0  2  0  0  0  0  0  0  0  0  0
  201.8919  132.2920  131.9857 C   0  0  0  0  0  0  0  0  0  0  0  0
  202.5289  133.5232  132.4804 N   0  0  0  0  0  0  0  0  0  0  0  0
  202.6272  133.7247  133.8640 C   0  0  0  0  0  0  0  0  0  0  0  0
  203.2374  134.7369  134.2844 O   0  0  0  0  0  0  0  0  0  0  0  0
  202.0380  132.7894  134.8931 C   0  0  1  0  0  0  0  0  0  0  0  0
  203.0379  131.8636  135.2739 N   0  0  0  0  0  0  0  0  0  0  0  0
  203.2616  131.1690  136.4659 C   0  0  0  0  0  0  0  0  0  0  0  0
  204.3976  131.3057  137.0624 O   0  0  0  0  0  0  0  0  0  0  0  0
  202.3885  130.3114  137.1278 O   0  0  0  0  0  0  0  0  0  0  0  0
  201.6201  129.2934  136.5341 C   0  0  0  0  0  0  0  0  0  0  0  0
  202.1188  127.9115  136.8605 C   0  0  0  0  0  0  0  0  0  0  0  0
  200.9304  126.9746  136.7874 C   0  0  0  0  0  0  0  0  0  0  0  0
  202.6204  127.9135  138.2860 C   0  0  0  0  0  0  0  0  0  0  0  0
  203.1755  127.4201  135.9260 C   0  0  0  0  0  0  0  0  0  0  0  0
  202.5827  126.7105  134.7132 C   0  0  0  0  0  0  0  0  0  0  0  0
  203.6748  126.4338  133.7236 C   0  0  0  0  0  0  0  0  0  0  0  0
  203.1335  126.4774  132.3005 C   0  0  0  0  0  0  0  0  0  0  0  0
  204.2195  126.5892  131.3061 C   0  0  0  0  0  0  0  0  0  0  0  0
  204.5058  127.6852  130.5684 C   0  0  0  0  0  0  0  0  0  0  0  0
  203.8397  128.9817  130.5697 C   0  0  0  0  0  0  0  0  0  0  0  0
  204.8795  129.8712  130.0876 N   0  0  0  0  0  0  0  0  0  0  0  0
  205.5446  129.1208  129.0250 C   0  0  0  0  0  0  0  0  0  0  0  0
  205.5314  127.7478  129.6484 C   0  0  0  0  0  0  0  0  0  0  0  0
  206.3009  126.6142  129.4844 C   0  0  0  0  0  0  0  0  0  0  0  0
  206.0560  125.4628  130.2108 C   0  0  0  0  0  0  0  0  0  0  0  0
  205.0159  125.4603  131.1167 C   0  0  0  0  0  0  0  0  0  0  0  0
  205.1153  131.1767  130.6111 C   0  0  0  0  0  0  0  0  0  0  0  0
  206.2612  131.7350  130.4710 O   0  0  0  0  0  0  0  0  0  0  0  0
  204.0706  131.7930  131.2609 O   0  0  0  0  0  0  0  0  0  0  0  0
  201.4045  133.5952  135.9752 C   0  0  0  0  0  0  0  0  0  0  0  0
  200.6183  132.7976  136.9628 C   0  0  0  0  0  0  0  0  0  0  0  0
  200.6913  134.7999  135.4325 C   0  0  0  0  0  0  0  0  0  0  0  0
  202.5894  134.1783  136.7809 C   0  0  0  0  0  0  0  0  0  0  0  0
  202.2767  135.6069  131.2756 C   0  0  0  0  0  0  0  0  0  0  0  0
  201.5185  135.8545  130.2806 O   0  0  0  0  0  0  0  0  0  0  0  0
  202.4290  136.5933  132.2531 N   0  0  0  0  0  0  0  0  0  0  0  0
  203.7543  137.2985  132.3461 C   0  0  2  0  0  0  0  0  0  0  0  0
  204.8547  136.3649  132.0712 C   0  0  0  0  0  0  0  0  0  0  0  0
  204.5984  136.9375  133.4840 C   0  0  1  0  0  0  0  0  0  0  0  0
  205.8143  137.6513  133.9694 C   0  0  0  0  0  0  0  0  0  0  0  0
  206.6031  136.9564  135.0281 C   0  0  0  0  0  0  0  0  0  0  0  0
  203.6653  138.6876  131.9259 C   0  0  0  0  0  0  0  0  0  0  0  0
  204.4048  139.6303  132.3207 O   0  0  0  0  0  0  0  0  0  0  0  0
  202.6429  139.0636  130.9629 N   0  0  0  0  0  0  0  0  0  0  0  0
  202.2264  140.7260  130.7630 S   0  0  0  0  0  6  0  0  0  0  0  0
  201.2883  140.9034  129.5827 O   0  0  0  0  0  0  0  0  0  0  0  0
  201.5715  141.2661  131.9996 O   0  0  0  0  0  0  0  0  0  0  0  0
  203.7186  141.6494  130.5055 C   0  0  0  0  0  0  0  0  0  0  0  0
  204.1841  142.4405  131.7487 C   0  0  0  0  0  0  0  0  0  0  0  0
  204.9691  141.2930  131.1822 C   0  0  0  0  0  0  0  0  0  0  0  0
  1  2  1  0
  3  2  1  6
  3  4  1  0
  4  5  1  0
  5  6  1  0
  6  7  2  0
  6  8  1  0
  8  9  1  0
  9 10  1  0
 10 11  2  0
 10 12  1  0
 12 13  1  0
 13 14  1  0
 14 15  1  0
 14 16  1  0
 14 17  1  0
 17 18  1  0
 18 19  1  0
 19 20  1  0
 20 21  1  0
 21 22  2  0
 22 23  1  0
 23 24  1  0
 24 25  1  0
 25 26  1  0
 26 27  2  0
 27 28  1  0
 28 29  2  0
 24 30  1  0
 30 31  2  0
 30 32  1  0
  8 33  1  1
 33 34  1  0
 33 35  1  0
 33 36  1  0
  1 37  1  6
 37 38  2  0
 37 39  1  0
 40 39  1  1
 40 41  1  0
 41 42  1  0
 42 43  1  6
 43 44  1  0
 40 45  1  0
 45 46  2  0
 45 47  1  0
 47 48  1  0
 48 49  2  0
 48 50  2  0
 48 51  1  0
 51 52  1  0
 52 53  1  0
  5  1  1  0
 29 21  1  0
 42 40  1  0
 53 51  1  0
 32  3  1  0
 26 22  1  0
M  END
$$$$
