
     RDKit          3D

 53 58  0  0  0  0  0  0  0  0999 V2000
  191.9981  158.6586  126.2017 C   0  0  2  0  0  0  0  0  0  0  0  0
  191.2841  159.9378  125.9477 C   0  0  0  0  0  0  0  0  0  0  0  0
  190.0155  159.4245  125.2427 C   0  0  2  0  0  0  0  0  0  0  0  0
  189.6732  158.2866  126.2187 C   0  0  0  0  0  0  0  0  0  0  0  0
  190.9835  157.6173  126.2584 N   0  0  0  0  0  0  0  0  0  0  0  0
  191.0262  156.2185  126.3369 C   0  0  0  0  0  0  0  0  0  0  0  0
  192.1413  155.6456  126.2940 O   0  0  0  0  0  0  0  0  0  0  0  0
  189.8002  155.3469  126.4714 C   0  0  1  0  0  0  0  0  0  0  0  0
  189.3960  154.9483  125.1754 N   0  0  0  0  0  0  0  0  0  0  0  0
  188.7334  153.8074  124.7139 C   0  0  0  0  0  0  0  0  0  0  0  0
  189.2975  153.0843  123.8063 O   0  0  0  0  0  0  0  0  0  0  0  0
  187.4930  153.3224  125.1165 O   0  0  0  0  0  0  0  0  0  0  0  0
  186.3227  154.0841  125.2874 C   0  0  0  0  0  0  0  0  0  0  0  0
  185.2945  153.8339  124.2173 C   0  0  0  0  0  0  0  0  0  0  0  0
  183.9351  154.1171  124.8233 C   0  0  0  0  0  0  0  0  0  0  0  0
  185.3415  152.3691  123.8487 C   0  0  0  0  0  0  0  0  0  0  0  0
  185.4688  154.6922  123.0072 C   0  0  0  0  0  0  0  0  0  0  0  0
  184.7304  156.0204  123.1359 C   0  0  0  0  0  0  0  0  0  0  0  0
  185.1167  156.9101  121.9923 C   0  0  0  0  0  0  0  0  0  0  0  0
  185.0913  158.3726  122.4174 C   0  0  0  0  0  0  0  0  0  0  0  0
  185.8170  159.2323  121.4608 C   0  0  0  0  0  0  0  0  0  0  0  0
  187.0074  159.8327  121.6836 C   0  0  0  0  0  0  0  0  0  0  0  0
  187.8412  159.7839  122.8783 C   0  0  0  0  0  0  0  0  0  0  0  0
  189.1627  160.0704  122.3527 N   0  0  0  0  0  0  0  0  0  0  0  0
  188.9462  161.1206  121.3603 C   0  0  0  0  0  0  0  0  0  0  0  0
  187.6524  160.6297  120.7611 C   0  0  0  0  0  0  0  0  0  0  0  0
  187.0305  160.8138  119.5432 C   0  0  0  0  0  0  0  0  0  0  0  0
  185.8118  160.2252  119.2574 C   0  0  0  0  0  0  0  0  0  0  0  0
  185.2148  159.4383  120.2201 C   0  0  0  0  0  0  0  0  0  0  0  0
  190.3505  159.4085  122.7826 C   0  0  0  0  0  0  0  0  0  0  0  0
  191.3853  159.3752  122.0259 O   0  0  0  0  0  0  0  0  0  0  0  0
  190.3284  158.8194  124.0260 O   0  0  0  0  0  0  0  0  0  0  0  0
  190.0774  154.2690  127.4629 C   0  0  0  0  0  0  0  0  0  0  0  0
  188.9563  153.3019  127.6568 C   0  0  0  0  0  0  0  0  0  0  0  0
  190.6624  154.8136  128.7339 C   0  0  0  0  0  0  0  0  0  0  0  0
  191.2218  153.4382  126.8359 C   0  0  0  0  0  0  0  0  0  0  0  0
  192.8555  158.6475  127.3948 C   0  0  0  0  0  0  0  0  0  0  0  0
  194.1018  158.8568  127.2243 O   0  0  0  0  0  0  0  0  0  0  0  0
  192.3937  158.4237  128.6941 N   0  0  0  0  0  0  0  0  0  0  0  0
  192.5670  159.5233  129.7058 C   0  0  2  0  0  0  0  0  0  0  0  0
  192.0492  159.1044  131.0152 C   0  0  0  0  0  0  0  0  0  0  0  0
  191.3424  160.1807  130.1597 C   0  0  1  0  0  0  0  0  0  0  0  0
  191.2322  161.4507  130.9333 C   0  0  0  0  0  0  0  0  0  0  0  0
  190.0788  162.3312  130.5865 C   0  0  0  0  0  0  0  0  0  0  0  0
  193.7601  160.3152  129.4538 C   0  0  0  0  0  0  0  0  0  0  0  0
  194.0975  160.8153  128.3459 O   0  0  0  0  0  0  0  0  0  0  0  0
  194.6726  160.5765  130.5552 N   0  0  0  0  0  0  0  0  0  0  0  0
  196.0529  161.5803  130.3025 S   0  0  0  0  0  6  0  0  0  0  0  0
  195.7141  163.0339  130.5797 O   0  0  0  0  0  0  0  0  0  0  0  0
  197.1890  161.1607  131.1874 O   0  0  0  0  0  0  0  0  0  0  0  0
  196.5872  161.3839  128.6227 C   0  0  0  0  0  0  0  0  0  0  0  0
  196.4743  162.6732  127.7783 C   0  0  0  0  0  0  0  0  0  0  0  0
  197.7946  162.0445  128.1183 C   0  0  0  0  0  0  0  0  0  0  0  0
  1  2  1  0
  3  2  1  1
  3  4  1  0
  4  5  1  0
  5  6  1  0
  6  7  2  0
  6  8  1  0
  8  9  1  0
  9 10  1  0
 10 11  2  0
 10 12  1  0
 12 13  1  0
 13 14  1  0
 14 15  1  0
 14 16  1  0
 14 17  1  0
 17 18  1  0
 18 19  1  0
 19 20  1  0
 20 21  1  0
 21 22  2  0
 22 23  1  0
 23 24  1  0
 24 25  1  0
 25 26  1  0
 26 27  2  0
 27 28  1  0
 28 29  2  0
 24 30  1  0
 30 31  2  0
 30 32  1  0
  8 33  1  1
 33 34  1  0
 33 35  1  0
 33 36  1  0
  1 37  1  1
 37 38  2  0
 37 39  1  0
 40 39  1  6
 40 41  1  0
 41 42  1  0
 42 43  1  1
 43 44  1  0
 40 45  1  0
 45 46  2  0
 45 47  1  0
 47 48  1  0
 48 49  2  0
 48 50  2  0
 48 51  1  0
 51 52  1  0
 52 53  1  0
  5  1  1  0
 29 21  1  0
 42 40  1  0
 53 51  1  0
 32  3  1  0
 26 22  1  0
M  END
$$$$
