
     RDKit          3D

 53 58  0  0  0  0  0  0  0  0999 V2000
  190.4372  156.8088  121.1460 C   0  0  2  0  0  0  0  0  0  0  0  0
  191.5761  157.1145  122.0517 C   0  0  0  0  0  0  0  0  0  0  0  0
  191.6577  158.6448  121.9053 C   0  0  2  0  0  0  0  0  0  0  0  0
  190.1610  158.9564  122.0711 C   0  0  0  0  0  0  0  0  0  0  0  0
  189.6196  158.0105  121.0818 N   0  0  0  0  0  0  0  0  0  0  0  0
  188.5097  158.3942  120.3165 C   0  0  0  0  0  0  0  0  0  0  0  0
  188.0966  157.6181  119.4217 O   0  0  0  0  0  0  0  0  0  0  0  0
  187.7710  159.6982  120.5029 C   0  0  1  0  0  0  0  0  0  0  0  0
  188.3198  160.6495  119.6108 N   0  0  0  0  0  0  0  0  0  0  0  0
  187.7632  161.7629  118.9753 C   0  0  0  0  0  0  0  0  0  0  0  0
  187.8057  161.8305  117.6875 O   0  0  0  0  0  0  0  0  0  0  0  0
  187.1417  162.8581  119.5669 O   0  0  0  0  0  0  0  0  0  0  0  0
  187.6144  163.5754  120.6810 C   0  0  0  0  0  0  0  0  0  0  0  0
  188.1321  164.9431  120.3256 C   0  0  0  0  0  0  0  0  0  0  0  0
  187.9596  165.8220  121.5476 C   0  0  0  0  0  0  0  0  0  0  0  0
  187.2647  165.5062  119.2236 C   0  0  0  0  0  0  0  0  0  0  0  0
  189.5715  164.9533  119.9265 C   0  0  0  0  0  0  0  0  0  0  0  0
  190.4973  165.1259  121.1260 C   0  0  0  0  0  0  0  0  0  0  0  0
  191.9155  164.9164  120.6862 C   0  0  0  0  0  0  0  0  0  0  0  0
  192.7441  164.3148  121.8139 C   0  0  0  0  0  0  0  0  0  0  0  0
  194.0149  163.7501  121.3170 C   0  0  0  0  0  0  0  0  0  0  0  0
  194.3151  162.4350  121.2306 C   0  0  0  0  0  0  0  0  0  0  0  0
  193.4911  161.2884  121.5925 C   0  0  0  0  0  0  0  0  0  0  0  0
  194.0423  160.2305  120.7668 N   0  0  0  0  0  0  0  0  0  0  0  0
  195.4872  160.4421  120.8108 C   0  0  0  0  0  0  0  0  0  0  0  0
  195.5167  161.9488  120.7596 C   0  0  0  0  0  0  0  0  0  0  0  0
  196.4569  162.8750  120.3568 C   0  0  0  0  0  0  0  0  0  0  0  0
  196.2070  164.2340  120.4217 C   0  0  0  0  0  0  0  0  0  0  0  0
  194.9864  164.6604  120.9019 C   0  0  0  0  0  0  0  0  0  0  0  0
  193.2520  159.2482  120.1001 C   0  0  0  0  0  0  0  0  0  0  0  0
  193.7144  158.6276  119.0777 O   0  0  0  0  0  0  0  0  0  0  0  0
  191.9934  159.0063  120.6011 O   0  0  0  0  0  0  0  0  0  0  0  0
  186.3053  159.4428  120.4132 C   0  0  0  0  0  0  0  0  0  0  0  0
  185.4574  160.6705  120.4716 C   0  0  0  0  0  0  0  0  0  0  0  0
  185.8717  158.3372  121.3320 C   0  0  0  0  0  0  0  0  0  0  0  0
  186.0885  158.8713  118.9921 C   0  0  0  0  0  0  0  0  0  0  0  0
  189.6426  155.6300  121.5169 C   0  0  0  0  0  0  0  0  0  0  0  0
  189.3863  154.7822  120.5995 O   0  0  0  0  0  0  0  0  0  0  0  0
  189.1544  155.3823  122.8022 N   0  0  0  0  0  0  0  0  0  0  0  0
  189.0921  156.5327  123.7693 C   0  0  2  0  0  0  0  0  0  0  0  0
  187.7063  156.9911  123.9353 C   0  0  0  0  0  0  0  0  0  0  0  0
  188.7678  157.8388  123.1975 C   0  0  1  0  0  0  0  0  0  0  0  0
  188.8989  159.1707  123.8550 C   0  0  0  0  0  0  0  0  0  0  0  0
  188.6251  159.2073  125.3212 C   0  0  0  0  0  0  0  0  0  0  0  0
  190.1059  156.4309  124.8065 C   0  0  0  0  0  0  0  0  0  0  0  0
  191.3049  156.8113  124.7109 O   0  0  0  0  0  0  0  0  0  0  0  0
  189.7425  155.8424  126.0854 N   0  0  0  0  0  0  0  0  0  0  0  0
  190.9675  155.1643  127.0936 S   0  0  0  0  0  6  0  0  0  0  0  0
  191.6414  156.2470  127.9170 O   0  0  0  0  0  0  0  0  0  0  0  0
  190.3907  154.1306  128.0148 O   0  0  0  0  0  0  0  0  0  0  0  0
  192.1561  154.3502  126.0591 C   0  0  0  0  0  0  0  0  0  0  0  0
  192.0527  154.7383  124.5669 C   0  0  0  0  0  0  0  0  0  0  0  0
  193.2439  155.0884  125.4109 C   0  0  0  0  0  0  0  0  0  0  0  0
  1  2  1  0
  3  2  1  6
  3  4  1  0
  4  5  1  0
  5  6  1  0
  6  7  2  0
  6  8  1  0
  8  9  1  0
  9 10  1  0
 10 11  2  0
 10 12  1  0
 12 13  1  0
 13 14  1  0
 14 15  1  0
 14 16  1  0
 14 17  1  0
 17 18  1  0
 18 19  1  0
 19 20  1  0
 20 21  1  0
 21 22  2  0
 22 23  1  0
 23 24  1  0
 24 25  1  0
 25 26  1  0
 26 27  2  0
 27 28  1  0
 28 29  2  0
 24 30  1  0
 30 31  2  0
 30 32  1  0
  8 33  1  6
 33 34  1  0
 33 35  1  0
 33 36  1  0
  1 37  1  1
 37 38  2  0
 37 39  1  0
 40 39  1  6
 40 41  1  0
 41 42  1  0
 42 43  1  1
 43 44  1  0
 40 45  1  0
 45 46  2  0
 45 47  1  0
 47 48  1  0
 48 49  2  0
 48 50  2  0
 48 51  1  0
 51 52  1  0
 52 53  1  0
  5  1  1  0
 29 21  1  0
 42 40  1  0
 53 51  1  0
 32  3  1  0
 26 22  1  0
M  END
$$$$
