
     RDKit          3D

 53 58  0  0  0  0  0  0  0  0999 V2000
  185.2669  160.2846  139.7693 C   0  0  2  0  0  0  0  0  0  0  0  0
  185.7176  159.9120  138.4023 C   0  0  0  0  0  0  0  0  0  0  0  0
  184.3666  159.8110  137.6712 C   0  0  2  0  0  0  0  0  0  0  0  0
  183.7501  161.1258  138.1769 C   0  0  0  0  0  0  0  0  0  0  0  0
  183.9797  160.9461  139.6196 N   0  0  0  0  0  0  0  0  0  0  0  0
  183.0075  161.4014  140.5208 C   0  0  0  0  0  0  0  0  0  0  0  0
  183.1686  161.1797  141.7450 O   0  0  0  0  0  0  0  0  0  0  0  0
  181.7633  162.1507  140.1067 C   0  0  1  0  0  0  0  0  0  0  0  0
  180.7171  161.2131  139.9384 N   0  0  0  0  0  0  0  0  0  0  0  0
  179.3318  161.3235  140.0873 C   0  0  0  0  0  0  0  0  0  0  0  0
  178.7287  160.5306  140.9073 O   0  0  0  0  0  0  0  0  0  0  0  0
  178.4749  162.2108  139.4438 O   0  0  0  0  0  0  0  0  0  0  0  0
  178.4756  162.5121  138.0697 C   0  0  0  0  0  0  0  0  0  0  0  0
  177.2963  161.9305  137.3376 C   0  0  0  0  0  0  0  0  0  0  0  0
  177.0237  162.8210  136.1425 C   0  0  0  0  0  0  0  0  0  0  0  0
  176.0930  161.9975  138.2494 C   0  0  0  0  0  0  0  0  0  0  0  0
  177.5201  160.5347  136.8549 C   0  0  0  0  0  0  0  0  0  0  0  0
  178.1519  160.5030  135.4672 C   0  0  0  0  0  0  0  0  0  0  0  0
  178.5404  159.0930  135.1364 C   0  0  0  0  0  0  0  0  0  0  0  0
  179.7769  159.0712  134.2472 C   0  0  0  0  0  0  0  0  0  0  0  0
  180.4032  157.7342  134.2149 C   0  0  0  0  0  0  0  0  0  0  0  0
  181.5768  157.3972  134.7950 C   0  0  0  0  0  0  0  0  0  0  0  0
  182.4833  158.2368  135.5681 C   0  0  0  0  0  0  0  0  0  0  0  0
  183.1874  157.2693  136.3884 N   0  0  0  0  0  0  0  0  0  0  0  0
  183.4320  156.1375  135.4973 C   0  0  0  0  0  0  0  0  0  0  0  0
  182.1277  156.1340  134.7407 C   0  0  0  0  0  0  0  0  0  0  0  0
  181.4248  155.1692  134.0485 C   0  0  0  0  0  0  0  0  0  0  0  0
  180.2187  155.4545  133.4343 C   0  0  0  0  0  0  0  0  0  0  0  0
  179.7176  156.7364  133.5230 C   0  0  0  0  0  0  0  0  0  0  0  0
  183.5177  157.4794  137.7598 C   0  0  0  0  0  0  0  0  0  0  0  0
  183.7369  156.4818  138.5350 O   0  0  0  0  0  0  0  0  0  0  0  0
  183.5872  158.7819  138.1984 O   0  0  0  0  0  0  0  0  0  0  0  0
  181.5306  163.2706  141.0623 C   0  0  0  0  0  0  0  0  0  0  0  0
  182.6559  164.2475  141.1583 C   0  0  0  0  0  0  0  0  0  0  0  0
  181.0107  162.7814  142.3832 C   0  0  0  0  0  0  0  0  0  0  0  0
  180.3535  164.0709  140.4563 C   0  0  0  0  0  0  0  0  0  0  0  0
  186.2133  161.1048  140.5376 C   0  0  0  0  0  0  0  0  0  0  0  0
  187.1262  160.4954  141.1868 O   0  0  0  0  0  0  0  0  0  0  0  0
  186.1754  162.4999  140.6006 N   0  0  0  0  0  0  0  0  0  0  0  0
  187.4828  163.2411  140.6627 C   0  0  2  0  0  0  0  0  0  0  0  0
  187.7569  163.9097  139.3837 C   0  0  0  0  0  0  0  0  0  0  0  0
  188.5755  162.6892  139.8632 C   0  0  1  0  0  0  0  0  0  0  0  0
  190.0211  163.0471  139.9394 C   0  0  0  0  0  0  0  0  0  0  0  0
  190.6055  163.1245  141.3099 C   0  0  0  0  0  0  0  0  0  0  0  0
  187.7538  163.7615  141.9931 C   0  0  0  0  0  0  0  0  0  0  0  0
  188.3994  164.8117  142.2609 O   0  0  0  0  0  0  0  0  0  0  0  0
  187.2504  163.0325  143.1460 N   0  0  0  0  0  0  0  0  0  0  0  0
  187.5379  163.6409  144.7347 S   0  0  0  0  0  6  0  0  0  0  0  0
  186.3677  163.3233  145.6481 O   0  0  0  0  0  0  0  0  0  0  0  0
  188.7903  163.0532  145.3143 O   0  0  0  0  0  0  0  0  0  0  0  0
  187.7745  165.3954  144.6274 C   0  0  0  0  0  0  0  0  0  0  0  0
  187.7037  165.9465  143.1855 C   0  0  0  0  0  0  0  0  0  0  0  0
  186.6862  166.2947  144.2330 C   0  0  0  0  0  0  0  0  0  0  0  0
  1  2  1  0
  3  2  1  1
  3  4  1  0
  4  5  1  0
  5  6  1  0
  6  7  2  0
  6  8  1  0
  8  9  1  0
  9 10  1  0
 10 11  2  0
 10 12  1  0
 12 13  1  0
 13 14  1  0
 14 15  1  0
 14 16  1  0
 14 17  1  0
 17 18  1  0
 18 19  1  0
 19 20  1  0
 20 21  1  0
 21 22  2  0
 22 23  1  0
 23 24  1  0
 24 25  1  0
 25 26  1  0
 26 27  2  0
 27 28  1  0
 28 29  2  0
 24 30  1  0
 30 31  2  0
 30 32  1  0
  8 33  1  1
 33 34  1  0
 33 35  1  0
 33 36  1  0
  1 37  1  6
 37 38  2  0
 37 39  1  0
 40 39  1  1
 40 41  1  0
 41 42  1  0
 42 43  1  1
 43 44  1  0
 40 45  1  0
 45 46  2  0
 45 47  1  0
 47 48  1  0
 48 49  2  0
 48 50  2  0
 48 51  1  0
 51 52  1  0
 52 53  1  0
  5  1  1  0
 29 21  1  0
 42 40  1  0
 53 51  1  0
 32  3  1  0
 26 22  1  0
M  END
$$$$
