
     RDKit          3D

 53 58  0  0  0  0  0  0  0  0999 V2000
  186.0594  159.9507  136.3223 C   0  0  2  0  0  0  0  0  0  0  0  0
  185.3958  160.3181  135.0435 C   0  0  0  0  0  0  0  0  0  0  0  0
  183.9140  160.2135  135.4476 C   0  0  2  0  0  0  0  0  0  0  0  0
  183.9966  160.9940  136.7700 C   0  0  0  0  0  0  0  0  0  0  0  0
  185.1246  160.2782  137.3879 N   0  0  0  0  0  0  0  0  0  0  0  0
  185.1069  160.0546  138.7715 C   0  0  0  0  0  0  0  0  0  0  0  0
  186.0306  159.3789  139.2852 O   0  0  0  0  0  0  0  0  0  0  0  0
  184.0337  160.5819  139.6941 C   0  0  1  0  0  0  0  0  0  0  0  0
  183.0425  159.5824  139.8370 N   0  0  0  0  0  0  0  0  0  0  0  0
  182.1673  159.2786  140.8835 C   0  0  0  0  0  0  0  0  0  0  0  0
  182.1895  158.0917  141.3890 O   0  0  0  0  0  0  0  0  0  0  0  0
  181.2329  160.1179  141.4822 O   0  0  0  0  0  0  0  0  0  0  0  0
  180.3333  160.9662  140.8114 C   0  0  0  0  0  0  0  0  0  0  0  0
  178.9088  160.4850  140.8760 C   0  0  0  0  0  0  0  0  0  0  0  0
  178.0158  161.7041  140.7677 C   0  0  0  0  0  0  0  0  0  0  0  0
  178.6805  159.8624  142.2339 C   0  0  0  0  0  0  0  0  0  0  0  0
  178.5498  159.5288  139.7859 C   0  0  0  0  0  0  0  0  0  0  0  0
  178.0479  160.2461  138.5372 C   0  0  0  0  0  0  0  0  0  0  0  0
  177.9089  159.2528  137.4225 C   0  0  0  0  0  0  0  0  0  0  0  0
  178.1825  159.9132  136.0775 C   0  0  0  0  0  0  0  0  0  0  0  0
  178.4282  158.9141  135.0181 C   0  0  0  0  0  0  0  0  0  0  0  0
  179.6202  158.6583  134.4342 C   0  0  0  0  0  0  0  0  0  0  0  0
  180.9124  159.2807  134.6941 C   0  0  0  0  0  0  0  0  0  0  0  0
  181.8474  158.2589  134.2622 N   0  0  0  0  0  0  0  0  0  0  0  0
  181.2594  157.7120  133.0416 C   0  0  0  0  0  0  0  0  0  0  0  0
  179.8067  157.7145  133.4460 C   0  0  0  0  0  0  0  0  0  0  0  0
  178.6989  156.9980  133.0417 C   0  0  0  0  0  0  0  0  0  0  0  0
  177.4532  157.2154  133.6022 C   0  0  0  0  0  0  0  0  0  0  0  0
  177.3285  158.1730  134.5871 C   0  0  0  0  0  0  0  0  0  0  0  0
  183.0513  157.9379  134.9559 C   0  0  0  0  0  0  0  0  0  0  0  0
  183.6042  156.7914  134.8002 O   0  0  0  0  0  0  0  0  0  0  0  0
  183.5777  158.9027  135.7839 O   0  0  0  0  0  0  0  0  0  0  0  0
  184.6728  161.0939  140.9394 C   0  0  0  0  0  0  0  0  0  0  0  0
  185.3580  162.4120  140.7877 C   0  0  0  0  0  0  0  0  0  0  0  0
  185.4906  160.0376  141.6250 C   0  0  0  0  0  0  0  0  0  0  0  0
  183.4965  161.3610  141.9080 C   0  0  0  0  0  0  0  0  0  0  0  0
  187.3742  160.5679  136.5441 C   0  0  0  0  0  0  0  0  0  0  0  0
  188.2720  160.3712  135.6600 O   0  0  0  0  0  0  0  0  0  0  0  0
  187.6992  161.3508  137.6545 N   0  0  0  0  0  0  0  0  0  0  0  0
  188.3036  162.7066  137.4118 C   0  0  2  0  0  0  0  0  0  0  0  0
  189.1511  162.6851  136.2120 C   0  0  0  0  0  0  0  0  0  0  0  0
  189.7445  162.8192  137.6332 C   0  0  1  0  0  0  0  0  0  0  0  0
  190.5485  164.0713  137.7303 C   0  0  0  0  0  0  0  0  0  0  0  0
  191.0449  164.6328  136.4403 C   0  0  0  0  0  0  0  0  0  0  0  0
  187.4222  163.7823  137.8363 C   0  0  0  0  0  0  0  0  0  0  0  0
  187.5944  165.0124  137.6158 O   0  0  0  0  0  0  0  0  0  0  0  0
  186.2217  163.4492  138.5859 N   0  0  0  0  0  0  0  0  0  0  0  0
  186.3523  162.9521  140.2329 S   0  0  0  0  0  6  0  0  0  0  0  0
  185.0258  163.1267  140.9502 O   0  0  0  0  0  0  0  0  0  0  0  0
  186.7792  161.5173  140.3266 O   0  0  0  0  0  0  0  0  0  0  0  0
  187.6069  163.9319  141.0151 C   0  0  0  0  0  0  0  0  0  0  0  0
  187.9998  163.4320  142.4235 C   0  0  0  0  0  0  0  0  0  0  0  0
  188.9515  163.4034  141.2626 C   0  0  0  0  0  0  0  0  0  0  0  0
  1  2  1  0
  3  2  1  1
  3  4  1  0
  4  5  1  0
  5  6  1  0
  6  7  2  0
  6  8  1  0
  8  9  1  0
  9 10  1  0
 10 11  2  0
 10 12  1  0
 12 13  1  0
 13 14  1  0
 14 15  1  0
 14 16  1  0
 14 17  1  0
 17 18  1  0
 18 19  1  0
 19 20  1  0
 20 21  1  0
 21 22  2  0
 22 23  1  0
 23 24  1  0
 24 25  1  0
 25 26  1  0
 26 27  2  0
 27 28  1  0
 28 29  2  0
 24 30  1  0
 30 31  2  0
 30 32  1  0
  8 33  1  1
 33 34  1  0
 33 35  1  0
 33 36  1  0
  1 37  1  1
 37 38  2  0
 37 39  1  0
 40 39  1  1
 40 41  1  0
 41 42  1  0
 42 43  1  6
 43 44  1  0
 40 45  1  0
 45 46  2  0
 45 47  1  0
 47 48  1  0
 48 49  2  0
 48 50  2  0
 48 51  1  0
 51 52  1  0
 52 53  1  0
  5  1  1  0
 29 21  1  0
 42 40  1  0
 53 51  1  0
 32  3  1  0
 26 22  1  0
M  END
$$$$
