
     RDKit          3D

 53 58  0  0  0  0  0  0  0  0999 V2000
  122.5072  150.7552  148.1909 C   0  0  2  0  0  0  0  0  0  0  0  0
  122.7993  150.9067  149.6409 C   0  0  0  0  0  0  0  0  0  0  0  0
  122.3644  149.5273  150.1680 C   0  0  2  0  0  0  0  0  0  0  0  0
  123.0689  148.6615  149.1103 C   0  0  0  0  0  0  0  0  0  0  0  0
  122.5711  149.3315  147.8979 N   0  0  0  0  0  0  0  0  0  0  0  0
  122.2710  148.5542  146.7708 C   0  0  0  0  0  0  0  0  0  0  0  0
  121.7755  149.1164  145.7648 O   0  0  0  0  0  0  0  0  0  0  0  0
  122.5091  147.0650  146.6896 C   0  0  1  0  0  0  0  0  0  0  0  0
  121.3179  146.4046  147.0731 N   0  0  0  0  0  0  0  0  0  0  0  0
  120.7792  145.1667  146.7117 C   0  0  0  0  0  0  0  0  0  0  0  0
  119.5965  145.1287  146.1972 O   0  0  0  0  0  0  0  0  0  0  0  0
  121.3692  143.9128  146.8362 O   0  0  0  0  0  0  0  0  0  0  0  0
  122.0472  143.4264  147.9688 C   0  0  0  0  0  0  0  0  0  0  0  0
  121.2758  142.3665  148.7081 C   0  0  0  0  0  0  0  0  0  0  0  0
  122.2852  141.4815  149.4104 C   0  0  0  0  0  0  0  0  0  0  0  0
  120.5434  141.5193  147.6933 C   0  0  0  0  0  0  0  0  0  0  0  0
  120.3289  142.9149  149.7250 C   0  0  0  0  0  0  0  0  0  0  0  0
  120.9946  143.1052  151.0837 C   0  0  0  0  0  0  0  0  0  0  0  0
  120.0589  143.8483  151.9896 C   0  0  0  0  0  0  0  0  0  0  0  0
  120.8369  144.7159  152.9705 C   0  0  0  0  0  0  0  0  0  0  0  0
  119.9727  145.7301  153.6072 C   0  0  0  0  0  0  0  0  0  0  0  0
  120.0053  147.0598  153.3662 C   0  0  0  0  0  0  0  0  0  0  0  0
  120.8685  147.7975  152.4522 C   0  0  0  0  0  0  0  0  0  0  0  0
  120.0910  148.9913  152.1782 N   0  0  0  0  0  0  0  0  0  0  0  0
  119.5031  149.3532  153.4658 C   0  0  0  0  0  0  0  0  0  0  0  0
  119.1788  147.9748  153.9841 C   0  0  0  0  0  0  0  0  0  0  0  0
  118.2705  147.4855  154.9004 C   0  0  0  0  0  0  0  0  0  0  0  0
  118.1905  146.1349  155.1886 C   0  0  0  0  0  0  0  0  0  0  0  0
  119.0436  145.2677  154.5385 C   0  0  0  0  0  0  0  0  0  0  0  0
  119.9902  149.5969  150.8910 C   0  0  0  0  0  0  0  0  0  0  0  0
  118.9954  150.3542  150.6059 O   0  0  0  0  0  0  0  0  0  0  0  0
  120.9954  149.3315  149.9895 O   0  0  0  0  0  0  0  0  0  0  0  0
  123.0723  146.7359  145.3495 C   0  0  0  0  0  0  0  0  0  0  0  0
  122.1027  146.8642  144.2211 C   0  0  0  0  0  0  0  0  0  0  0  0
  123.8466  145.4496  145.3674 C   0  0  0  0  0  0  0  0  0  0  0  0
  124.1392  147.8253  145.0892 C   0  0  0  0  0  0  0  0  0  0  0  0
  123.3722  151.5339  147.2942 C   0  0  0  0  0  0  0  0  0  0  0  0
  123.8247  152.6430  147.7316 O   0  0  0  0  0  0  0  0  0  0  0  0
  123.7270  151.1378  146.0024 N   0  0  0  0  0  0  0  0  0  0  0  0
  122.8128  151.5175  144.8698 C   0  0  2  0  0  0  0  0  0  0  0  0
  121.4872  151.8909  145.3813 C   0  0  0  0  0  0  0  0  0  0  0  0
  121.7213  150.5880  144.5829 C   0  0  1  0  0  0  0  0  0  0  0  0
  120.8445  150.5686  143.3768 C   0  0  0  0  0  0  0  0  0  0  0  0
  120.2885  149.2386  142.9924 C   0  0  0  0  0  0  0  0  0  0  0  0
  123.5321  152.1460  143.7736 C   0  0  0  0  0  0  0  0  0  0  0  0
  123.0242  152.8624  142.8679 O   0  0  0  0  0  0  0  0  0  0  0  0
  124.9703  151.9547  143.6789 N   0  0  0  0  0  0  0  0  0  0  0  0
  126.0169  153.3263  143.6720 S   0  0  0  0  0  6  0  0  0  0  0  0
  127.3651  152.9724  144.2734 O   0  0  0  0  0  0  0  0  0  0  0  0
  126.2179  153.8391  142.2768 O   0  0  0  0  0  0  0  0  0  0  0  0
  125.2477  154.6214  144.6083 C   0  0  0  0  0  0  0  0  0  0  0  0
  126.1269  155.1669  145.7561 C   0  0  0  0  0  0  0  0  0  0  0  0
  125.7454  155.9995  144.5665 C   0  0  0  0  0  0  0  0  0  0  0  0
  1  2  1  0
  3  2  1  6
  3  4  1  0
  4  5  1  0
  5  6  1  0
  6  7  2  0
  6  8  1  0
  8  9  1  0
  9 10  1  0
 10 11  2  0
 10 12  1  0
 12 13  1  0
 13 14  1  0
 14 15  1  0
 14 16  1  0
 14 17  1  0
 17 18  1  0
 18 19  1  0
 19 20  1  0
 20 21  1  0
 21 22  2  0
 22 23  1  0
 23 24  1  0
 24 25  1  0
 25 26  1  0
 26 27  2  0
 27 28  1  0
 28 29  2  0
 24 30  1  0
 30 31  2  0
 30 32  1  0
  8 33  1  6
 33 34  1  0
 33 35  1  0
 33 36  1  0
  1 37  1  6
 37 38  2  0
 37 39  1  0
 40 39  1  1
 40 41  1  0
 41 42  1  0
 42 43  1  6
 43 44  1  0
 40 45  1  0
 45 46  2  0
 45 47  1  0
 47 48  1  0
 48 49  2  0
 48 50  2  0
 48 51  1  0
 51 52  1  0
 52 53  1  0
  5  1  1  0
 29 21  1  0
 42 40  1  0
 53 51  1  0
 32  3  1  0
 26 22  1  0
M  END
$$$$
