
     RDKit          3D

 43 48  0  0  0  0  0  0  0  0999 V2000
  127.0742  136.6082  131.9630 C   0  0  0  0  0  0  0  0  0  0  0  0
  128.2648  137.3284  131.9446 O   0  0  0  0  0  0  0  0  0  0  0  0
  128.3906  138.6476  132.3389 C   0  0  0  0  0  0  0  0  0  0  0  0
  129.6173  139.1712  132.7678 C   0  0  0  0  0  0  0  0  0  0  0  0
  129.7408  140.4814  133.1570 C   0  0  0  0  0  0  0  0  0  0  0  0
  128.6114  141.2578  133.1054 C   0  0  0  0  0  0  0  0  0  0  0  0
  128.8506  142.6557  133.4960 C   0  0  0  0  0  0  0  0  0  0  0  0
  130.0204  143.2715  133.1822 C   0  0  0  0  0  0  0  0  0  0  0  0
  131.0597  142.8084  132.2856 C   0  0  0  0  0  0  0  0  0  0  0  0
  130.8758  143.6046  130.9370 C   0  0  0  0  0  0  0  0  0  0  0  0
  132.1148  143.3487  130.1456 C   0  0  0  0  0  0  0  0  0  0  0  0
  132.7955  142.0329  130.4498 C   0  0  0  0  0  0  0  0  0  0  0  0
  133.2320  141.8968  131.8914 C   0  0  0  0  0  0  0  0  0  0  0  0
  132.4741  143.0422  132.6195 C   0  0  0  0  0  0  0  0  0  0  0  0
  129.8931  144.5138  133.8011 C   0  0  0  0  0  0  0  0  0  0  0  0
  130.8405  145.5099  133.7844 C   0  0  0  0  0  0  0  0  0  0  0  0
  130.5058  146.6542  134.4600 C   0  0  0  0  0  0  0  0  0  0  0  0
  129.2647  146.8162  135.1389 C   0  0  0  0  0  0  0  0  0  0  0  0
  128.3290  145.7957  135.1452 C   0  0  0  0  0  0  0  0  0  0  0  0
  128.6585  144.6334  134.4619 C   0  0  0  0  0  0  0  0  0  0  0  0
  128.0424  143.4772  134.2529 N   0  0  0  0  0  0  0  0  0  0  0  0
  126.7183  143.0048  134.6382 C   0  0  0  0  0  0  0  0  0  0  0  0
  125.8350  142.4925  133.5667 C   0  0  0  0  0  0  0  0  0  0  0  0
  126.0947  141.4805  132.7054 C   0  0  0  0  0  0  0  0  0  0  0  0
  127.3712  140.7697  132.6889 C   0  0  0  0  0  0  0  0  0  0  0  0
  127.2690  139.4476  132.3007 C   0  0  0  0  0  0  0  0  0  0  0  0
  124.4777  142.9317  133.2797 C   0  0  0  0  0  0  0  0  0  0  0  0
  123.6438  141.9178  133.1683 O   0  0  0  0  0  0  0  0  0  0  0  0
  123.8966  144.1763  133.1044 N   0  0  0  0  0  0  0  0  0  0  0  0
  122.8125  144.5669  134.0374 C   0  0  0  0  0  0  0  0  0  0  0  0
  124.1691  145.1834  132.0977 C   0  0  0  0  0  0  0  0  0  0  0  0
  124.8651  146.3487  132.6960 C   0  0  0  0  0  0  0  0  0  0  0  0
  124.1116  147.3981  133.1297 O   0  0  0  0  0  0  0  0  0  0  0  0
  124.5748  148.5792  132.5836 C   0  0  0  0  0  0  0  0  0  0  0  0
  124.6182  149.7534  133.5062 C   0  0  0  0  0  0  0  0  0  0  0  0
  125.9736  150.1104  133.9450 N   0  0  0  0  0  0  0  0  0  0  0  0
  125.8961  151.1095  134.9946 C   0  0  0  0  0  0  0  0  0  0  0  0
  126.7650  148.7337  134.6062 S   0  0  0  0  0  6  0  0  0  0  0  0
  125.7474  147.9773  135.3654 O   0  0  0  0  0  0  0  0  0  0  0  0
  127.4105  147.9214  133.4805 O   0  0  0  0  0  0  0  0  0  0  0  0
  128.1414  149.1392  135.6001 N   0  0  0  0  0  0  0  0  0  0  0  0
  129.2126  148.1815  135.6984 C   0  0  0  0  0  0  0  0  0  0  0  0
  130.2126  148.6419  136.3636 O   0  0  0  0  0  0  0  0  0  0  0  0
  1  2  1  0
  2  3  1  0
  3  4  2  0
  4  5  1  0
  5  6  2  0
  6  7  1  0
  7  8  2  0
  8  9  1  0
  9 10  1  0
 10 11  1  0
 11 12  1  0
 12 13  1  0
 13 14  1  0
  8 15  1  0
 15 16  2  0
 16 17  1  0
 17 18  2  0
 18 19  1  0
 19 20  2  0
 20 21  1  0
 21 22  1  0
 22 23  1  0
 23 24  2  0
 24 25  1  0
 25 26  2  0
 23 27  1  0
 27 28  2  0
 27 29  1  0
 29 30  1  0
 29 31  1  0
 31 32  1  0
 32 33  1  0
 33 34  1  0
 34 35  1  0
 35 36  1  0
 36 37  1  0
 36 38  1  0
 38 39  2  0
 38 40  2  0
 38 41  1  0
 41 42  1  0
 42 43  2  0
 26  3  1  0
 25  6  1  0
 21  7  1  0
 14  9  1  0
 20 15  1  0
 42 18  1  0
M  END
$$$$
