
     RDKit          3D

 43 48  0  0  0  0  0  0  0  0999 V2000
  195.7495  167.8649  133.0353 C   0  0  0  0  0  0  0  0  0  0  0  0
  195.7423  166.5575  133.5120 O   0  0  0  0  0  0  0  0  0  0  0  0
  195.0401  165.5154  132.9354 C   0  0  0  0  0  0  0  0  0  0  0  0
  194.7838  164.3283  133.6341 C   0  0  0  0  0  0  0  0  0  0  0  0
  194.0849  163.2957  133.0608 C   0  0  0  0  0  0  0  0  0  0  0  0
  193.6453  163.4768  131.7744 C   0  0  0  0  0  0  0  0  0  0  0  0
  192.8681  162.3378  131.2617 C   0  0  0  0  0  0  0  0  0  0  0  0
  192.0494  161.6321  132.0847 C   0  0  0  0  0  0  0  0  0  0  0  0
  191.6322  161.9685  133.4305 C   0  0  0  0  0  0  0  0  0  0  0  0
  191.4632  160.6035  134.2018 C   0  0  0  0  0  0  0  0  0  0  0  0
  191.3356  160.9680  135.6432 C   0  0  0  0  0  0  0  0  0  0  0  0
  190.7574  162.3424  135.8962 C   0  0  0  0  0  0  0  0  0  0  0  0
  191.5747  163.4629  135.2931 C   0  0  0  0  0  0  0  0  0  0  0  0
  192.5318  162.7363  134.3069 C   0  0  0  0  0  0  0  0  0  0  0  0
  191.5900  160.6061  131.2607 C   0  0  0  0  0  0  0  0  0  0  0  0
  190.7289  159.6054  131.6439 C   0  0  0  0  0  0  0  0  0  0  0  0
  190.4073  158.6978  130.6689 C   0  0  0  0  0  0  0  0  0  0  0  0
  190.9221  158.7723  129.3433 C   0  0  0  0  0  0  0  0  0  0  0  0
  191.7921  159.7875  128.9836 C   0  0  0  0  0  0  0  0  0  0  0  0
  192.1222  160.7125  129.9643 C   0  0  0  0  0  0  0  0  0  0  0  0
  192.9001  161.7867  129.9982 N   0  0  0  0  0  0  0  0  0  0  0  0
  193.6851  162.4439  128.9606 C   0  0  0  0  0  0  0  0  0  0  0  0
  193.4501  163.8877  128.7349 C   0  0  0  0  0  0  0  0  0  0  0  0
  193.5606  164.8870  129.6419 C   0  0  0  0  0  0  0  0  0  0  0  0
  193.8864  164.6429  131.0451 C   0  0  0  0  0  0  0  0  0  0  0  0
  194.5915  165.6707  131.6415 C   0  0  0  0  0  0  0  0  0  0  0  0
  193.1258  164.5242  127.4671 C   0  0  0  0  0  0  0  0  0  0  0  0
  193.8971  165.5645  127.2252 O   0  0  0  0  0  0  0  0  0  0  0  0
  192.1886  164.2616  126.4819 N   0  0  0  0  0  0  0  0  0  0  0  0
  192.6891  163.9622  125.1188 C   0  0  0  0  0  0  0  0  0  0  0  0
  190.7414  164.2626  126.5676 C   0  0  0  0  0  0  0  0  0  0  0  0
  190.2100  162.8801  126.4864 C   0  0  0  0  0  0  0  0  0  0  0  0
  189.8506  162.3971  125.2638 O   0  0  0  0  0  0  0  0  0  0  0  0
  188.5638  161.8970  125.3050 C   0  0  0  0  0  0  0  0  0  0  0  0
  188.3359  160.6170  124.5692 C   0  0  0  0  0  0  0  0  0  0  0  0
  188.1888  159.4488  125.4472 N   0  0  0  0  0  0  0  0  0  0  0  0
  188.1900  158.2379  124.6474 C   0  0  0  0  0  0  0  0  0  0  0  0
  189.5217  159.3486  126.5298 S   0  0  0  0  0  6  0  0  0  0  0  0
  190.7230  159.7528  125.7699 O   0  0  0  0  0  0  0  0  0  0  0  0
  189.2555  160.2258  127.7560 O   0  0  0  0  0  0  0  0  0  0  0  0
  189.7131  157.7681  127.2455 N   0  0  0  0  0  0  0  0  0  0  0  0
  190.3232  157.6825  128.5473 C   0  0  0  0  0  0  0  0  0  0  0  0
  190.3039  156.4833  129.0119 O   0  0  0  0  0  0  0  0  0  0  0  0
  1  2  1  0
  2  3  1  0
  3  4  2  0
  4  5  1  0
  5  6  2  0
  6  7  1  0
  7  8  2  0
  8  9  1  0
  9 10  1  0
 10 11  1  0
 11 12  1  0
 12 13  1  0
 13 14  1  0
  8 15  1  0
 15 16  2  0
 16 17  1  0
 17 18  2  0
 18 19  1  0
 19 20  2  0
 20 21  1  0
 21 22  1  0
 22 23  1  0
 23 24  2  0
 24 25  1  0
 25 26  2  0
 23 27  1  0
 27 28  2  0
 27 29  1  0
 29 30  1  0
 29 31  1  0
 31 32  1  0
 32 33  1  0
 33 34  1  0
 34 35  1  0
 35 36  1  0
 36 37  1  0
 36 38  1  0
 38 39  2  0
 38 40  2  0
 38 41  1  0
 41 42  1  0
 42 43  2  0
 26  3  1  0
 25  6  1  0
 21  7  1  0
 14  9  1  0
 20 15  1  0
 42 18  1  0
M  END
$$$$
