
     RDKit          3D

 43 48  0  0  0  0  0  0  0  0999 V2000
  193.4669  162.2184  113.8843 C   0  0  0  0  0  0  0  0  0  0  0  0
  192.1753  162.0330  114.3680 O   0  0  0  0  0  0  0  0  0  0  0  0
  191.8659  161.7038  115.6747 C   0  0  0  0  0  0  0  0  0  0  0  0
  191.1921  162.5984  116.5166 C   0  0  0  0  0  0  0  0  0  0  0  0
  190.8841  162.2693  117.8128 C   0  0  0  0  0  0  0  0  0  0  0  0
  191.2620  161.0249  118.2483 C   0  0  0  0  0  0  0  0  0  0  0  0
  190.8493  160.7451  119.6323 C   0  0  0  0  0  0  0  0  0  0  0  0
  189.6700  161.2193  120.1121 C   0  0  0  0  0  0  0  0  0  0  0  0
  188.5835  161.8243  119.3693 C   0  0  0  0  0  0  0  0  0  0  0  0
  187.4971  162.2492  120.4303 C   0  0  0  0  0  0  0  0  0  0  0  0
  186.5415  163.1309  119.6980 C   0  0  0  0  0  0  0  0  0  0  0  0
  186.4420  162.8561  118.2142 C   0  0  0  0  0  0  0  0  0  0  0  0
  187.7527  163.0246  117.4786 C   0  0  0  0  0  0  0  0  0  0  0  0
  188.8138  163.0664  118.6138 C   0  0  0  0  0  0  0  0  0  0  0  0
  189.7013  160.8324  121.4508 C   0  0  0  0  0  0  0  0  0  0  0  0
  188.7197  161.0959  122.3765 C   0  0  0  0  0  0  0  0  0  0  0  0
  188.9565  160.6203  123.6396 C   0  0  0  0  0  0  0  0  0  0  0  0
  190.1350  159.9001  123.9861 C   0  0  0  0  0  0  0  0  0  0  0  0
  191.1114  159.6519  123.0364 C   0  0  0  0  0  0  0  0  0  0  0  0
  190.8793  160.1284  121.7536 C   0  0  0  0  0  0  0  0  0  0  0  0
  191.5603  160.0905  120.6157 N   0  0  0  0  0  0  0  0  0  0  0  0
  192.8308  159.4645  120.2707 C   0  0  0  0  0  0  0  0  0  0  0  0
  192.8471  158.5388  119.1158 C   0  0  0  0  0  0  0  0  0  0  0  0
  192.4805  158.8128  117.8414 C   0  0  0  0  0  0  0  0  0  0  0  0
  191.9393  160.1093  117.4403 C   0  0  0  0  0  0  0  0  0  0  0  0
  192.2392  160.4607  116.1380 C   0  0  0  0  0  0  0  0  0  0  0  0
  193.3349  157.1678  119.1121 C   0  0  0  0  0  0  0  0  0  0  0  0
  194.1649  156.9417  118.1142 O   0  0  0  0  0  0  0  0  0  0  0  0
  193.1080  156.0741  119.9306 N   0  0  0  0  0  0  0  0  0  0  0  0
  194.2749  155.4843  120.6298 C   0  0  0  0  0  0  0  0  0  0  0  0
  191.8698  155.3693  120.1990 C   0  0  0  0  0  0  0  0  0  0  0  0
  191.4008  155.6397  121.5801 C   0  0  0  0  0  0  0  0  0  0  0  0
  191.7709  154.7773  122.5683 O   0  0  0  0  0  0  0  0  0  0  0  0
  190.6615  154.3466  123.2693 C   0  0  0  0  0  0  0  0  0  0  0  0
  190.8188  154.2585  124.7523 C   0  0  0  0  0  0  0  0  0  0  0  0
  190.1343  155.3324  125.4840 N   0  0  0  0  0  0  0  0  0  0  0  0
  190.5200  155.2887  126.8823 C   0  0  0  0  0  0  0  0  0  0  0  0
  190.6108  156.8665  124.8691 S   0  0  0  0  0  6  0  0  0  0  0  0
  192.0518  156.7738  124.5544 O   0  0  0  0  0  0  0  0  0  0  0  0
  189.7467  157.2260  123.6575 O   0  0  0  0  0  0  0  0  0  0  0  0
  190.2732  158.1842  125.9629 N   0  0  0  0  0  0  0  0  0  0  0  0
  190.0322  159.4879  125.4002 C   0  0  0  0  0  0  0  0  0  0  0  0
  189.6853  160.3438  126.2954 O   0  0  0  0  0  0  0  0  0  0  0  0
  1  2  1  0
  2  3  1  0
  3  4  2  0
  4  5  1  0
  5  6  2  0
  6  7  1  0
  7  8  2  0
  8  9  1  0
  9 10  1  0
 10 11  1  0
 11 12  1  0
 12 13  1  0
 13 14  1  0
  8 15  1  0
 15 16  2  0
 16 17  1  0
 17 18  2  0
 18 19  1  0
 19 20  2  0
 20 21  1  0
 21 22  1  0
 22 23  1  0
 23 24  2  0
 24 25  1  0
 25 26  2  0
 23 27  1  0
 27 28  2  0
 27 29  1  0
 29 30  1  0
 29 31  1  0
 31 32  1  0
 32 33  1  0
 33 34  1  0
 34 35  1  0
 35 36  1  0
 36 37  1  0
 36 38  1  0
 38 39  2  0
 38 40  2  0
 38 41  1  0
 41 42  1  0
 42 43  2  0
 26  3  1  0
 25  6  1  0
 21  7  1  0
 14  9  1  0
 20 15  1  0
 42 18  1  0
M  END
$$$$
