
     RDKit          3D

 43 48  0  0  0  0  0  0  0  0999 V2000
  129.4617  147.7984  128.5644 C   0  0  0  0  0  0  0  0  0  0  0  0
  129.8819  148.2213  129.8218 O   0  0  0  0  0  0  0  0  0  0  0  0
  129.5847  147.5751  131.0074 C   0  0  0  0  0  0  0  0  0  0  0  0
  129.5331  148.2648  132.2259 C   0  0  0  0  0  0  0  0  0  0  0  0
  129.2361  147.6221  133.4015 C   0  0  0  0  0  0  0  0  0  0  0  0
  128.9890  146.2749  133.3320 C   0  0  0  0  0  0  0  0  0  0  0  0
  128.6350  145.6827  134.6313 C   0  0  0  0  0  0  0  0  0  0  0  0
  127.9021  146.3842  135.5349 C   0  0  0  0  0  0  0  0  0  0  0  0
  127.1897  147.6291  135.3318 C   0  0  0  0  0  0  0  0  0  0  0  0
  125.7952  147.4699  136.0504 C   0  0  0  0  0  0  0  0  0  0  0  0
  125.2070  148.8405  136.0974 C   0  0  0  0  0  0  0  0  0  0  0  0
  125.6656  149.7607  134.9883 C   0  0  0  0  0  0  0  0  0  0  0  0
  127.1604  149.9902  134.9720 C   0  0  0  0  0  0  0  0  0  0  0  0
  127.7179  148.8781  135.9041 C   0  0  0  0  0  0  0  0  0  0  0  0
  127.8733  145.5337  136.6388 C   0  0  0  0  0  0  0  0  0  0  0  0
  127.2518  145.8056  137.8345 C   0  0  0  0  0  0  0  0  0  0  0  0
  127.3486  144.8247  138.7865 C   0  0  0  0  0  0  0  0  0  0  0  0
  128.0428  143.6009  138.5677 C   0  0  0  0  0  0  0  0  0  0  0  0
  128.6651  143.3531  137.3560 C   0  0  0  0  0  0  0  0  0  0  0  0
  128.5708  144.3403  136.3849 C   0  0  0  0  0  0  0  0  0  0  0  0
  129.0235  144.4631  135.1439 N   0  0  0  0  0  0  0  0  0  0  0  0
  129.7734  143.5463  134.2941 C   0  0  0  0  0  0  0  0  0  0  0  0
  129.2109  143.2320  132.9616 C   0  0  0  0  0  0  0  0  0  0  0  0
  128.9011  144.1074  131.9762 C   0  0  0  0  0  0  0  0  0  0  0  0
  129.0367  145.5533  132.1375 C   0  0  0  0  0  0  0  0  0  0  0  0
  129.3371  146.2200  130.9651 C   0  0  0  0  0  0  0  0  0  0  0  0
  128.9511  141.9055  132.4227 C   0  0  0  0  0  0  0  0  0  0  0  0
  129.4531  141.7567  131.2137 O   0  0  0  0  0  0  0  0  0  0  0  0
  128.2962  140.7891  132.9149 N   0  0  0  0  0  0  0  0  0  0  0  0
  129.0809  139.5395  133.0603 C   0  0  0  0  0  0  0  0  0  0  0  0
  126.9061  140.6338  133.2966 C   0  0  0  0  0  0  0  0  0  0  0  0
  126.7763  140.5166  134.7696 C   0  0  0  0  0  0  0  0  0  0  0  0
  126.7682  139.2699  135.3200 O   0  0  0  0  0  0  0  0  0  0  0  0
  125.6692  139.1158  136.1423 C   0  0  0  0  0  0  0  0  0  0  0  0
  125.9119  138.4000  137.4308 C   0  0  0  0  0  0  0  0  0  0  0  0
  125.9288  139.2838  138.6038 N   0  0  0  0  0  0  0  0  0  0  0  0
  126.3820  138.5403  139.7647 C   0  0  0  0  0  0  0  0  0  0  0  0
  127.0381  140.5751  138.3578 S   0  0  0  0  0  6  0  0  0  0  0  0
  128.2027  140.0102  137.6446 O   0  0  0  0  0  0  0  0  0  0  0  0
  126.3481  141.7072  137.5922 O   0  0  0  0  0  0  0  0  0  0  0  0
  127.5119  141.3701  139.8377 N   0  0  0  0  0  0  0  0  0  0  0  0
  127.8935  142.7573  139.7702 C   0  0  0  0  0  0  0  0  0  0  0  0
  128.1100  143.2559  140.9359 O   0  0  0  0  0  0  0  0  0  0  0  0
  1  2  1  0
  2  3  1  0
  3  4  2  0
  4  5  1  0
  5  6  2  0
  6  7  1  0
  7  8  2  0
  8  9  1  0
  9 10  1  0
 10 11  1  0
 11 12  1  0
 12 13  1  0
 13 14  1  0
  8 15  1  0
 15 16  2  0
 16 17  1  0
 17 18  2  0
 18 19  1  0
 19 20  2  0
 20 21  1  0
 21 22  1  0
 22 23  1  0
 23 24  2  0
 24 25  1  0
 25 26  2  0
 23 27  1  0
 27 28  2  0
 27 29  1  0
 29 30  1  0
 29 31  1  0
 31 32  1  0
 32 33  1  0
 33 34  1  0
 34 35  1  0
 35 36  1  0
 36 37  1  0
 36 38  1  0
 38 39  2  0
 38 40  2  0
 38 41  1  0
 41 42  1  0
 42 43  2  0
 26  3  1  0
 25  6  1  0
 21  7  1  0
 14  9  1  0
 20 15  1  0
 42 18  1  0
M  END
$$$$
