
     RDKit          3D

 43 48  0  0  0  0  0  0  0  0999 V2000
  210.8775  134.8173  133.9766 C   0  0  0  0  0  0  0  0  0  0  0  0
  209.9225  134.5682  134.9576 O   0  0  0  0  0  0  0  0  0  0  0  0
  208.5570  134.6778  134.7699 C   0  0  0  0  0  0  0  0  0  0  0  0
  207.6713  133.6988  135.2388 C   0  0  0  0  0  0  0  0  0  0  0  0
  206.3161  133.8101  135.0534 C   0  0  0  0  0  0  0  0  0  0  0  0
  205.8653  134.9234  134.3913 C   0  0  0  0  0  0  0  0  0  0  0  0
  204.3994  134.9783  134.2811 C   0  0  0  0  0  0  0  0  0  0  0  0
  203.6119  134.5149  135.2865 C   0  0  0  0  0  0  0  0  0  0  0  0
  204.0078  134.1372  136.6278 C   0  0  0  0  0  0  0  0  0  0  0  0
  203.6885  135.3728  137.5540 C   0  0  0  0  0  0  0  0  0  0  0  0
  203.8111  134.8699  138.9536 C   0  0  0  0  0  0  0  0  0  0  0  0
  204.7633  133.7073  139.1236 C   0  0  0  0  0  0  0  0  0  0  0  0
  204.3798  132.4880  138.3152 C   0  0  0  0  0  0  0  0  0  0  0  0
  203.3241  133.0258  137.3088 C   0  0  0  0  0  0  0  0  0  0  0  0
  202.3275  134.6498  134.7624 C   0  0  0  0  0  0  0  0  0  0  0  0
  201.1657  134.2974  135.4075 C   0  0  0  0  0  0  0  0  0  0  0  0
  200.0102  134.5176  134.7046 C   0  0  0  0  0  0  0  0  0  0  0  0
  199.9967  135.0730  133.3935 C   0  0  0  0  0  0  0  0  0  0  0  0
  201.1811  135.4150  132.7633 C   0  0  0  0  0  0  0  0  0  0  0  0
  202.3566  135.1971  133.4683 C   0  0  0  0  0  0  0  0  0  0  0  0
  203.6425  135.3892  133.2043 N   0  0  0  0  0  0  0  0  0  0  0  0
  204.3150  135.9703  132.0489 C   0  0  0  0  0  0  0  0  0  0  0  0
  205.2568  137.0857  132.2937 C   0  0  0  0  0  0  0  0  0  0  0  0
  206.3484  137.0750  133.0948 C   0  0  0  0  0  0  0  0  0  0  0  0
  206.7179  135.9166  133.9050 C   0  0  0  0  0  0  0  0  0  0  0  0
  208.0790  135.7852  134.1030 C   0  0  0  0  0  0  0  0  0  0  0  0
  205.2328  138.3943  131.6577 C   0  0  0  0  0  0  0  0  0  0  0  0
  206.4138  138.7344  131.1831 O   0  0  0  0  0  0  0  0  0  0  0  0
  204.2380  139.3358  131.4536 N   0  0  0  0  0  0  0  0  0  0  0  0
  203.9128  139.7004  130.0537 C   0  0  0  0  0  0  0  0  0  0  0  0
  203.4558  140.0712  132.4279 C   0  0  0  0  0  0  0  0  0  0  0  0
  202.0523  139.5913  132.4441 C   0  0  0  0  0  0  0  0  0  0  0  0
  201.1421  140.2306  131.6567 O   0  0  0  0  0  0  0  0  0  0  0  0
  200.0437  140.6093  132.4037 C   0  0  0  0  0  0  0  0  0  0  0  0
  198.7127  140.4157  131.7537 C   0  0  0  0  0  0  0  0  0  0  0  0
  197.9510  139.2815  132.2928 N   0  0  0  0  0  0  0  0  0  0  0  0
  196.7846  139.0425  131.4633 C   0  0  0  0  0  0  0  0  0  0  0  0
  198.9079  137.8526  132.2547 S   0  0  0  0  0  6  0  0  0  0  0  0
  199.6887  137.8925  131.0006 O   0  0  0  0  0  0  0  0  0  0  0  0
  199.7801  137.7839  133.5110 O   0  0  0  0  0  0  0  0  0  0  0  0
  197.9671  136.3878  132.3821 N   0  0  0  0  0  0  0  0  0  0  0  0
  198.5920  135.2291  132.9664 C   0  0  0  0  0  0  0  0  0  0  0  0
  197.7654  134.2539  133.1071 O   0  0  0  0  0  0  0  0  0  0  0  0
  1  2  1  0
  2  3  1  0
  3  4  2  0
  4  5  1  0
  5  6  2  0
  6  7  1  0
  7  8  2  0
  8  9  1  0
  9 10  1  0
 10 11  1  0
 11 12  1  0
 12 13  1  0
 13 14  1  0
  8 15  1  0
 15 16  2  0
 16 17  1  0
 17 18  2  0
 18 19  1  0
 19 20  2  0
 20 21  1  0
 21 22  1  0
 22 23  1  0
 23 24  2  0
 24 25  1  0
 25 26  2  0
 23 27  1  0
 27 28  2  0
 27 29  1  0
 29 30  1  0
 29 31  1  0
 31 32  1  0
 32 33  1  0
 33 34  1  0
 34 35  1  0
 35 36  1  0
 36 37  1  0
 36 38  1  0
 38 39  2  0
 38 40  2  0
 38 41  1  0
 41 42  1  0
 42 43  2  0
 26  3  1  0
 25  6  1  0
 21  7  1  0
 14  9  1  0
 20 15  1  0
 42 18  1  0
M  END
$$$$
