
     RDKit          3D

 43 48  0  0  0  0  0  0  0  0999 V2000
  121.8805  151.0305  139.4205 C   0  0  0  0  0  0  0  0  0  0  0  0
  121.8570  151.8093  140.5736 O   0  0  0  0  0  0  0  0  0  0  0  0
  121.8050  151.3059  141.8602 C   0  0  0  0  0  0  0  0  0  0  0  0
  121.9809  152.1314  142.9785 C   0  0  0  0  0  0  0  0  0  0  0  0
  121.9270  151.6303  144.2550 C   0  0  0  0  0  0  0  0  0  0  0  0
  121.6905  150.2861  144.3892 C   0  0  0  0  0  0  0  0  0  0  0  0
  121.6040  149.8499  145.7915 C   0  0  0  0  0  0  0  0  0  0  0  0
  121.0504  150.6565  146.7342 C   0  0  0  0  0  0  0  0  0  0  0  0
  120.2943  151.8755  146.5327 C   0  0  0  0  0  0  0  0  0  0  0  0
  119.1365  151.8671  147.6032 C   0  0  0  0  0  0  0  0  0  0  0  0
  118.5638  153.2450  147.5886 C   0  0  0  0  0  0  0  0  0  0  0  0
  118.7069  153.9722  146.2704 C   0  0  0  0  0  0  0  0  0  0  0  0
  120.1431  154.1543  145.8327 C   0  0  0  0  0  0  0  0  0  0  0  0
  120.9375  153.1817  146.7491 C   0  0  0  0  0  0  0  0  0  0  0  0
  121.2486  149.9386  147.9124 C   0  0  0  0  0  0  0  0  0  0  0  0
  120.8671  150.3510  149.1671 C   0  0  0  0  0  0  0  0  0  0  0  0
  121.1609  149.4852  150.1878 C   0  0  0  0  0  0  0  0  0  0  0  0
  121.8171  148.2387  149.9794 C   0  0  0  0  0  0  0  0  0  0  0  0
  122.1958  147.8484  148.7062 C   0  0  0  0  0  0  0  0  0  0  0  0
  121.9007  148.7183  147.6657 C   0  0  0  0  0  0  0  0  0  0  0  0
  122.1021  148.6941  146.3547 N   0  0  0  0  0  0  0  0  0  0  0  0
  122.6860  147.6798  145.4857 C   0  0  0  0  0  0  0  0  0  0  0  0
  121.8802  147.2191  144.3327 C   0  0  0  0  0  0  0  0  0  0  0  0
  121.3724  147.9781  143.3330 C   0  0  0  0  0  0  0  0  0  0  0  0
  121.5159  149.4317  143.2986 C   0  0  0  0  0  0  0  0  0  0  0  0
  121.5734  149.9570  142.0219 C   0  0  0  0  0  0  0  0  0  0  0  0
  121.5398  145.8416  144.0097 C   0  0  0  0  0  0  0  0  0  0  0  0
  121.7997  145.5509  142.7512 O   0  0  0  0  0  0  0  0  0  0  0  0
  121.0090  144.7945  144.7441 N   0  0  0  0  0  0  0  0  0  0  0  0
  121.8250  143.5636  144.8758 C   0  0  0  0  0  0  0  0  0  0  0  0
  119.7219  144.6954  145.4039 C   0  0  0  0  0  0  0  0  0  0  0  0
  119.8821  144.7491  146.8776 C   0  0  0  0  0  0  0  0  0  0  0  0
  119.9989  143.5740  147.5578 O   0  0  0  0  0  0  0  0  0  0  0  0
  119.0827  143.5243  148.5902 C   0  0  0  0  0  0  0  0  0  0  0  0
  119.5811  142.9592  149.8801 C   0  0  0  0  0  0  0  0  0  0  0  0
  119.8126  143.9716  150.9186 N   0  0  0  0  0  0  0  0  0  0  0  0
  120.4932  143.3627  152.0464 C   0  0  0  0  0  0  0  0  0  0  0  0
  120.8344  145.2171  150.3158 S   0  0  0  0  0  6  0  0  0  0  0  0
  121.8465  144.5646  149.4590 O   0  0  0  0  0  0  0  0  0  0  0  0
  119.9927  146.2594  149.5748 O   0  0  0  0  0  0  0  0  0  0  0  0
  121.5749  146.1729  151.5747 N   0  0  0  0  0  0  0  0  0  0  0  0
  121.9161  147.5400  151.2763 C   0  0  0  0  0  0  0  0  0  0  0  0
  122.3475  148.1674  152.3129 O   0  0  0  0  0  0  0  0  0  0  0  0
  1  2  1  0
  2  3  1  0
  3  4  2  0
  4  5  1  0
  5  6  2  0
  6  7  1  0
  7  8  2  0
  8  9  1  0
  9 10  1  0
 10 11  1  0
 11 12  1  0
 12 13  1  0
 13 14  1  0
  8 15  1  0
 15 16  2  0
 16 17  1  0
 17 18  2  0
 18 19  1  0
 19 20  2  0
 20 21  1  0
 21 22  1  0
 22 23  1  0
 23 24  2  0
 24 25  1  0
 25 26  2  0
 23 27  1  0
 27 28  2  0
 27 29  1  0
 29 30  1  0
 29 31  1  0
 31 32  1  0
 32 33  1  0
 33 34  1  0
 34 35  1  0
 35 36  1  0
 36 37  1  0
 36 38  1  0
 38 39  2  0
 38 40  2  0
 38 41  1  0
 41 42  1  0
 42 43  2  0
 26  3  1  0
 25  6  1  0
 21  7  1  0
 14  9  1  0
 20 15  1  0
 42 18  1  0
M  END
$$$$
