
     RDKit          3D

 43 48  0  0  0  0  0  0  0  0999 V2000
  194.1404  161.4101  134.1473 C   0  0  0  0  0  0  0  0  0  0  0  0
  193.8996  160.2025  133.4992 O   0  0  0  0  0  0  0  0  0  0  0  0
  193.4453  160.0863  132.1985 C   0  0  0  0  0  0  0  0  0  0  0  0
  193.8687  159.0436  131.3640 C   0  0  0  0  0  0  0  0  0  0  0  0
  193.4152  158.9287  130.0739 C   0  0  0  0  0  0  0  0  0  0  0  0
  192.5268  159.8778  129.6369 C   0  0  0  0  0  0  0  0  0  0  0  0
  192.0621  159.6467  128.2604 C   0  0  0  0  0  0  0  0  0  0  0  0
  191.8714  158.3838  127.7972 C   0  0  0  0  0  0  0  0  0  0  0  0
  191.8537  157.1491  128.5545 C   0  0  0  0  0  0  0  0  0  0  0  0
  190.6122  157.2351  129.5229 C   0  0  0  0  0  0  0  0  0  0  0  0
  190.4285  155.8574  130.0663 C   0  0  0  0  0  0  0  0  0  0  0  0
  191.6933  155.0307  130.1266 C   0  0  0  0  0  0  0  0  0  0  0  0
  192.3446  154.8221  128.7776 C   0  0  0  0  0  0  0  0  0  0  0  0
  191.6468  155.8668  127.8620 C   0  0  0  0  0  0  0  0  0  0  0  0
  191.5387  158.5906  126.4595 C   0  0  0  0  0  0  0  0  0  0  0  0
  191.2611  157.5995  125.5481 C   0  0  0  0  0  0  0  0  0  0  0  0
  190.9564  158.0293  124.2831 C   0  0  0  0  0  0  0  0  0  0  0  0
  190.9254  159.4061  123.9210 C   0  0  0  0  0  0  0  0  0  0  0  0
  191.2139  160.3852  124.8564 C   0  0  0  0  0  0  0  0  0  0  0  0
  191.5221  159.9593  126.1410 C   0  0  0  0  0  0  0  0  0  0  0  0
  191.8450  160.5795  127.2684 N   0  0  0  0  0  0  0  0  0  0  0  0
  191.9492  161.9961  127.5959 C   0  0  0  0  0  0  0  0  0  0  0  0
  191.1708  162.4906  128.7536 C   0  0  0  0  0  0  0  0  0  0  0  0
  191.2361  162.0506  130.0325 C   0  0  0  0  0  0  0  0  0  0  0  0
  192.0867  160.9338  130.4375 C   0  0  0  0  0  0  0  0  0  0  0  0
  192.5553  161.0305  131.7337 C   0  0  0  0  0  0  0  0  0  0  0  0
  190.2332  163.6035  128.7545 C   0  0  0  0  0  0  0  0  0  0  0  0
  190.4674  164.4456  129.7403 O   0  0  0  0  0  0  0  0  0  0  0  0
  189.1656  163.9500  127.9435 N   0  0  0  0  0  0  0  0  0  0  0  0
  189.2375  165.2469  127.2284 C   0  0  0  0  0  0  0  0  0  0  0  0
  187.9296  163.2337  127.6966 C   0  0  0  0  0  0  0  0  0  0  0  0
  187.9116  162.6764  126.3220 C   0  0  0  0  0  0  0  0  0  0  0  0
  187.3431  163.4195  125.3312 O   0  0  0  0  0  0  0  0  0  0  0  0
  186.4041  162.6711  124.6488 C   0  0  0  0  0  0  0  0  0  0  0  0
  186.3913  162.8341  123.1640 C   0  0  0  0  0  0  0  0  0  0  0  0
  186.9653  161.6929  122.4391 N   0  0  0  0  0  0  0  0  0  0  0  0
  187.1072  162.0318  121.0352 C   0  0  0  0  0  0  0  0  0  0  0  0
  188.5368  161.3373  123.0413 S   0  0  0  0  0  6  0  0  0  0  0  0
  189.1871  162.6317  123.3341 O   0  0  0  0  0  0  0  0  0  0  0  0
  188.4243  160.4240  124.2648 O   0  0  0  0  0  0  0  0  0  0  0  0
  189.4924  160.3683  121.9483 N   0  0  0  0  0  0  0  0  0  0  0  0
  190.5024  159.5089  122.5101 C   0  0  0  0  0  0  0  0  0  0  0  0
  191.0568  158.7673  121.6174 O   0  0  0  0  0  0  0  0  0  0  0  0
  1  2  1  0
  2  3  1  0
  3  4  2  0
  4  5  1  0
  5  6  2  0
  6  7  1  0
  7  8  2  0
  8  9  1  0
  9 10  1  0
 10 11  1  0
 11 12  1  0
 12 13  1  0
 13 14  1  0
  8 15  1  0
 15 16  2  0
 16 17  1  0
 17 18  2  0
 18 19  1  0
 19 20  2  0
 20 21  1  0
 21 22  1  0
 22 23  1  0
 23 24  2  0
 24 25  1  0
 25 26  2  0
 23 27  1  0
 27 28  2  0
 27 29  1  0
 29 30  1  0
 29 31  1  0
 31 32  1  0
 32 33  1  0
 33 34  1  0
 34 35  1  0
 35 36  1  0
 36 37  1  0
 36 38  1  0
 38 39  2  0
 38 40  2  0
 38 41  1  0
 41 42  1  0
 42 43  2  0
 26  3  1  0
 25  6  1  0
 21  7  1  0
 14  9  1  0
 20 15  1  0
 42 18  1  0
M  END
$$$$
