
     RDKit          3D

 43 48  0  0  0  0  0  0  0  0999 V2000
  195.5866  178.7272  132.8849 C   0  0  0  0  0  0  0  0  0  0  0  0
  194.2281  178.4259  132.8779 O   0  0  0  0  0  0  0  0  0  0  0  0
  193.4444  178.3595  131.7408 C   0  0  0  0  0  0  0  0  0  0  0  0
  192.8580  177.1575  131.3232 C   0  0  0  0  0  0  0  0  0  0  0  0
  192.0788  177.0939  130.1953 C   0  0  0  0  0  0  0  0  0  0  0  0
  191.8961  178.2590  129.4954 C   0  0  0  0  0  0  0  0  0  0  0  0
  191.0111  178.1029  128.3307 C   0  0  0  0  0  0  0  0  0  0  0  0
  189.9511  177.2543  128.3759 C   0  0  0  0  0  0  0  0  0  0  0  0
  189.3924  176.5857  129.5331 C   0  0  0  0  0  0  0  0  0  0  0  0
  188.4931  175.4133  128.9826 C   0  0  0  0  0  0  0  0  0  0  0  0
  188.1765  174.5589  130.1644 C   0  0  0  0  0  0  0  0  0  0  0  0
  188.1720  175.2913  131.4875 C   0  0  0  0  0  0  0  0  0  0  0  0
  189.4984  175.9330  131.8283 C   0  0  0  0  0  0  0  0  0  0  0  0
  190.2822  175.9028  130.4862 C   0  0  0  0  0  0  0  0  0  0  0  0
  189.4457  177.3194  127.0785 C   0  0  0  0  0  0  0  0  0  0  0  0
  188.3602  176.6159  126.6132 C   0  0  0  0  0  0  0  0  0  0  0  0
  188.0351  176.8327  125.2997 C   0  0  0  0  0  0  0  0  0  0  0  0
  188.7629  177.7233  124.4601 C   0  0  0  0  0  0  0  0  0  0  0  0
  189.8559  178.4166  124.9515 C   0  0  0  0  0  0  0  0  0  0  0  0
  190.1916  178.2046  126.2815 C   0  0  0  0  0  0  0  0  0  0  0  0
  191.1427  178.6700  127.0808 N   0  0  0  0  0  0  0  0  0  0  0  0
  192.1958  179.6531  126.8586 C   0  0  0  0  0  0  0  0  0  0  0  0
  192.2781  180.7932  127.7989 C   0  0  0  0  0  0  0  0  0  0  0  0
  192.4271  180.7365  129.1436 C   0  0  0  0  0  0  0  0  0  0  0  0
  192.4687  179.4739  129.8777 C   0  0  0  0  0  0  0  0  0  0  0  0
  193.2493  179.5160  131.0170 C   0  0  0  0  0  0  0  0  0  0  0  0
  192.2903  182.2055  127.4483 C   0  0  0  0  0  0  0  0  0  0  0  0
  193.2734  182.8528  128.0400 O   0  0  0  0  0  0  0  0  0  0  0  0
  191.4929  182.9911  126.6331 N   0  0  0  0  0  0  0  0  0  0  0  0
  192.1421  183.6753  125.4890 C   0  0  0  0  0  0  0  0  0  0  0  0
  190.0776  183.2862  126.7419 C   0  0  0  0  0  0  0  0  0  0  0  0
  189.3145  182.5988  125.6716 C   0  0  0  0  0  0  0  0  0  0  0  0
  189.0734  183.2758  124.5137 O   0  0  0  0  0  0  0  0  0  0  0  0
  187.7259  183.2456  124.2121 C   0  0  0  0  0  0  0  0  0  0  0  0
  187.3823  183.0277  122.7747 C   0  0  0  0  0  0  0  0  0  0  0  0
  186.8762  181.6795  122.4859 N   0  0  0  0  0  0  0  0  0  0  0  0
  186.7780  181.4957  121.0498 C   0  0  0  0  0  0  0  0  0  0  0  0
  187.9724  180.4944  123.0799 S   0  0  0  0  0  6  0  0  0  0  0  0
  189.3356  181.0109  122.8371 O   0  0  0  0  0  0  0  0  0  0  0  0
  187.6817  180.2196  124.5576 O   0  0  0  0  0  0  0  0  0  0  0  0
  187.7424  178.9197  122.3629 N   0  0  0  0  0  0  0  0  0  0  0  0
  188.1058  177.7617  123.1385 C   0  0  0  0  0  0  0  0  0  0  0  0
  187.7848  176.6649  122.5484 O   0  0  0  0  0  0  0  0  0  0  0  0
  1  2  1  0
  2  3  1  0
  3  4  2  0
  4  5  1  0
  5  6  2  0
  6  7  1  0
  7  8  2  0
  8  9  1  0
  9 10  1  0
 10 11  1  0
 11 12  1  0
 12 13  1  0
 13 14  1  0
  8 15  1  0
 15 16  2  0
 16 17  1  0
 17 18  2  0
 18 19  1  0
 19 20  2  0
 20 21  1  0
 21 22  1  0
 22 23  1  0
 23 24  2  0
 24 25  1  0
 25 26  2  0
 23 27  1  0
 27 28  2  0
 27 29  1  0
 29 30  1  0
 29 31  1  0
 31 32  1  0
 32 33  1  0
 33 34  1  0
 34 35  1  0
 35 36  1  0
 36 37  1  0
 36 38  1  0
 38 39  2  0
 38 40  2  0
 38 41  1  0
 41 42  1  0
 42 43  2  0
 26  3  1  0
 25  6  1  0
 21  7  1  0
 14  9  1  0
 20 15  1  0
 42 18  1  0
M  END
$$$$
