
     RDKit          3D

 43 48  0  0  0  0  0  0  0  0999 V2000
  202.7068  138.0895  136.4240 C   0  0  0  0  0  0  0  0  0  0  0  0
  204.0827  137.8916  136.3607 O   0  0  0  0  0  0  0  0  0  0  0  0
  204.6933  136.8104  135.7526 C   0  0  0  0  0  0  0  0  0  0  0  0
  206.0382  136.8515  135.3621 C   0  0  0  0  0  0  0  0  0  0  0  0
  206.6432  135.7767  134.7604 C   0  0  0  0  0  0  0  0  0  0  0  0
  205.8749  134.6584  134.5601 C   0  0  0  0  0  0  0  0  0  0  0  0
  206.6196  133.5445  133.9529 C   0  0  0  0  0  0  0  0  0  0  0  0
  207.9241  133.3313  134.2674 C   0  0  0  0  0  0  0  0  0  0  0  0
  208.6962  133.9400  135.3312 C   0  0  0  0  0  0  0  0  0  0  0  0
  208.2445  133.2398  136.6700 C   0  0  0  0  0  0  0  0  0  0  0  0
  209.2465  133.6494  137.6972 C   0  0  0  0  0  0  0  0  0  0  0  0
  209.9059  134.9851  137.4357 C   0  0  0  0  0  0  0  0  0  0  0  0
  210.6611  135.0410  136.1265 C   0  0  0  0  0  0  0  0  0  0  0  0
  210.1601  133.7883  135.3542 C   0  0  0  0  0  0  0  0  0  0  0  0
  208.2775  132.2764  133.4278 C   0  0  0  0  0  0  0  0  0  0  0  0
  209.5226  131.6973  133.3616 C   0  0  0  0  0  0  0  0  0  0  0  0
  209.6489  130.6702  132.4633 C   0  0  0  0  0  0  0  0  0  0  0  0
  208.5727  130.2214  131.6459 C   0  0  0  0  0  0  0  0  0  0  0  0
  207.3293  130.8248  131.7278 C   0  0  0  0  0  0  0  0  0  0  0  0
  207.1915  131.8650  132.6364 C   0  0  0  0  0  0  0  0  0  0  0  0
  206.1896  132.6617  132.9850 N   0  0  0  0  0  0  0  0  0  0  0  0
  204.7960  132.7039  132.5596 C   0  0  0  0  0  0  0  0  0  0  0  0
  203.7565  132.6439  133.6116 C   0  0  0  0  0  0  0  0  0  0  0  0
  203.6035  133.4861  134.6608 C   0  0  0  0  0  0  0  0  0  0  0  0
  204.5307  134.5826  134.9307 C   0  0  0  0  0  0  0  0  0  0  0  0
  203.9413  135.6760  135.5357 C   0  0  0  0  0  0  0  0  0  0  0  0
  202.6461  131.7057  133.6789 C   0  0  0  0  0  0  0  0  0  0  0  0
  201.4964  132.3152  133.8850 O   0  0  0  0  0  0  0  0  0  0  0  0
  202.5555  130.3281  133.5711 N   0  0  0  0  0  0  0  0  0  0  0  0
  201.7163  129.7772  132.4800 C   0  0  0  0  0  0  0  0  0  0  0  0
  203.1486  129.3008  134.4048 C   0  0  0  0  0  0  0  0  0  0  0  0
  204.2392  128.6027  133.6812 C   0  0  0  0  0  0  0  0  0  0  0  0
  203.9342  127.4656  132.9948 O   0  0  0  0  0  0  0  0  0  0  0  0
  204.7814  126.4397  133.3655 C   0  0  0  0  0  0  0  0  0  0  0  0
  205.2773  125.5686  132.2579 C   0  0  0  0  0  0  0  0  0  0  0  0
  206.6813  125.8094  131.9001 N   0  0  0  0  0  0  0  0  0  0  0  0
  207.0044  125.0811  130.6871 C   0  0  0  0  0  0  0  0  0  0  0  0
  206.9331  127.4799  131.5767 S   0  0  0  0  0  6  0  0  0  0  0  0
  205.7315  127.9653  130.8664 O   0  0  0  0  0  0  0  0  0  0  0  0
  207.2046  128.2224  132.8877 O   0  0  0  0  0  0  0  0  0  0  0  0
  208.3902  127.7958  130.6690 N   0  0  0  0  0  0  0  0  0  0  0  0
  209.0394  129.0686  130.8501 C   0  0  0  0  0  0  0  0  0  0  0  0
  210.1570  129.1352  130.2169 O   0  0  0  0  0  0  0  0  0  0  0  0
  1  2  1  0
  2  3  1  0
  3  4  2  0
  4  5  1  0
  5  6  2  0
  6  7  1  0
  7  8  2  0
  8  9  1  0
  9 10  1  0
 10 11  1  0
 11 12  1  0
 12 13  1  0
 13 14  1  0
  8 15  1  0
 15 16  2  0
 16 17  1  0
 17 18  2  0
 18 19  1  0
 19 20  2  0
 20 21  1  0
 21 22  1  0
 22 23  1  0
 23 24  2  0
 24 25  1  0
 25 26  2  0
 23 27  1  0
 27 28  2  0
 27 29  1  0
 29 30  1  0
 29 31  1  0
 31 32  1  0
 32 33  1  0
 33 34  1  0
 34 35  1  0
 35 36  1  0
 36 37  1  0
 36 38  1  0
 38 39  2  0
 38 40  2  0
 38 41  1  0
 41 42  1  0
 42 43  2  0
 26  3  1  0
 25  6  1  0
 21  7  1  0
 14  9  1  0
 20 15  1  0
 42 18  1  0
M  END
$$$$
