
     RDKit          3D

 43 48  0  0  0  0  0  0  0  0999 V2000
  208.3963  141.7721  130.8440 C   0  0  0  0  0  0  0  0  0  0  0  0
  207.0910  142.2473  130.9270 O   0  0  0  0  0  0  0  0  0  0  0  0
  205.9751  141.4506  131.1044 C   0  0  0  0  0  0  0  0  0  0  0  0
  204.6873  141.9976  131.1777 C   0  0  0  0  0  0  0  0  0  0  0  0
  203.5806  141.2050  131.3518 C   0  0  0  0  0  0  0  0  0  0  0  0
  203.7891  139.8529  131.4483 C   0  0  0  0  0  0  0  0  0  0  0  0
  202.5434  139.0827  131.5866 C   0  0  0  0  0  0  0  0  0  0  0  0
  201.4129  139.4738  130.9427 C   0  0  0  0  0  0  0  0  0  0  0  0
  201.2778  140.4789  129.9083 C   0  0  0  0  0  0  0  0  0  0  0  0
  202.5130  140.2993  128.9447 C   0  0  0  0  0  0  0  0  0  0  0  0
  202.2051  141.1202  127.7372 C   0  0  0  0  0  0  0  0  0  0  0  0
  201.2953  142.3007  127.9938 C   0  0  0  0  0  0  0  0  0  0  0  0
  199.9409  141.9124  128.5433 C   0  0  0  0  0  0  0  0  0  0  0  0
  200.1295  140.4350  128.9885 C   0  0  0  0  0  0  0  0  0  0  0  0
  200.4626  138.5641  131.4034 C   0  0  0  0  0  0  0  0  0  0  0  0
  199.1355  138.5526  131.0449 C   0  0  0  0  0  0  0  0  0  0  0  0
  198.3775  137.5659  131.6192 C   0  0  0  0  0  0  0  0  0  0  0  0
  198.9133  136.6096  132.5281 C   0  0  0  0  0  0  0  0  0  0  0  0
  200.2527  136.6457  132.8770 C   0  0  0  0  0  0  0  0  0  0  0  0
  201.0287  137.6407  132.2988 C   0  0  0  0  0  0  0  0  0  0  0  0
  202.3067  137.9854  132.3873 N   0  0  0  0  0  0  0  0  0  0  0  0
  203.4199  137.3890  133.1153 C   0  0  0  0  0  0  0  0  0  0  0  0
  204.6328  137.0365  132.3437 C   0  0  0  0  0  0  0  0  0  0  0  0
  205.3928  137.8649  131.5889 C   0  0  0  0  0  0  0  0  0  0  0  0
  205.0576  139.2724  131.3854 C   0  0  0  0  0  0  0  0  0  0  0  0
  206.1584  140.0886  131.2090 C   0  0  0  0  0  0  0  0  0  0  0  0
  205.2893  135.7383  132.3082 C   0  0  0  0  0  0  0  0  0  0  0  0
  206.5861  135.8348  132.5200 O   0  0  0  0  0  0  0  0  0  0  0  0
  204.8348  134.4467  132.1015 N   0  0  0  0  0  0  0  0  0  0  0  0
  205.0418  133.4621  133.1907 C   0  0  0  0  0  0  0  0  0  0  0  0
  204.1919  133.8751  130.9346 C   0  0  0  0  0  0  0  0  0  0  0  0
  202.7577  133.6082  131.2035 C   0  0  0  0  0  0  0  0  0  0  0  0
  202.4038  132.3700  131.6493 O   0  0  0  0  0  0  0  0  0  0  0  0
  201.3970  131.8464  130.8621 C   0  0  0  0  0  0  0  0  0  0  0  0
  200.3068  131.1273  131.5873 C   0  0  0  0  0  0  0  0  0  0  0  0
  199.0496  131.8828  131.6639 N   0  0  0  0  0  0  0  0  0  0  0  0
  198.1316  131.2070  132.5620 C   0  0  0  0  0  0  0  0  0  0  0  0
  199.3379  133.4503  132.3110 S   0  0  0  0  0  6  0  0  0  0  0  0
  200.3569  133.2964  133.3703 O   0  0  0  0  0  0  0  0  0  0  0  0
  199.7674  134.3990  131.1888 O   0  0  0  0  0  0  0  0  0  0  0  0
  197.8943  134.2253  132.9128 N   0  0  0  0  0  0  0  0  0  0  0  0
  197.8410  135.6646  132.8983 C   0  0  0  0  0  0  0  0  0  0  0  0
  196.6890  136.1089  133.2584 O   0  0  0  0  0  0  0  0  0  0  0  0
  1  2  1  0
  2  3  1  0
  3  4  2  0
  4  5  1  0
  5  6  2  0
  6  7  1  0
  7  8  2  0
  8  9  1  0
  9 10  1  0
 10 11  1  0
 11 12  1  0
 12 13  1  0
 13 14  1  0
  8 15  1  0
 15 16  2  0
 16 17  1  0
 17 18  2  0
 18 19  1  0
 19 20  2  0
 20 21  1  0
 21 22  1  0
 22 23  1  0
 23 24  2  0
 24 25  1  0
 25 26  2  0
 23 27  1  0
 27 28  2  0
 27 29  1  0
 29 30  1  0
 29 31  1  0
 31 32  1  0
 32 33  1  0
 33 34  1  0
 34 35  1  0
 35 36  1  0
 36 37  1  0
 36 38  1  0
 38 39  2  0
 38 40  2  0
 38 41  1  0
 41 42  1  0
 42 43  2  0
 26  3  1  0
 25  6  1  0
 21  7  1  0
 14  9  1  0
 20 15  1  0
 42 18  1  0
M  END
$$$$
