
     RDKit          3D

 43 48  0  0  0  0  0  0  0  0999 V2000
  192.0172  154.4026  123.5592 C   0  0  0  0  0  0  0  0  0  0  0  0
  192.3945  154.6301  122.2393 O   0  0  0  0  0  0  0  0  0  0  0  0
  192.2744  155.8429  121.5863 C   0  0  0  0  0  0  0  0  0  0  0  0
  192.9323  156.0919  120.3746 C   0  0  0  0  0  0  0  0  0  0  0  0
  192.8104  157.2955  119.7268 C   0  0  0  0  0  0  0  0  0  0  0  0
  192.0140  158.2442  120.3156 C   0  0  0  0  0  0  0  0  0  0  0  0
  191.9072  159.4817  119.5273 C   0  0  0  0  0  0  0  0  0  0  0  0
  191.8895  159.4380  118.1695 C   0  0  0  0  0  0  0  0  0  0  0  0
  191.7424  158.2767  117.3163 C   0  0  0  0  0  0  0  0  0  0  0  0
  192.4302  158.6385  115.9442 C   0  0  0  0  0  0  0  0  0  0  0  0
  192.5414  157.3514  115.1972 C   0  0  0  0  0  0  0  0  0  0  0  0
  191.4901  156.3242  115.5531 C   0  0  0  0  0  0  0  0  0  0  0  0
  191.5088  155.9193  117.0102 C   0  0  0  0  0  0  0  0  0  0  0  0
  192.3886  157.0073  117.6875 C   0  0  0  0  0  0  0  0  0  0  0  0
  191.8822  160.7861  117.8155 C   0  0  0  0  0  0  0  0  0  0  0  0
  191.8770  161.2688  116.5283 C   0  0  0  0  0  0  0  0  0  0  0  0
  191.8696  162.6340  116.4099 C   0  0  0  0  0  0  0  0  0  0  0  0
  191.8675  163.5075  117.5344 C   0  0  0  0  0  0  0  0  0  0  0  0
  191.8779  162.9963  118.8211 C   0  0  0  0  0  0  0  0  0  0  0  0
  191.8838  161.6144  118.9508 C   0  0  0  0  0  0  0  0  0  0  0  0
  191.8967  160.7826  119.9842 N   0  0  0  0  0  0  0  0  0  0  0  0
  191.8567  161.0262  121.4209 C   0  0  0  0  0  0  0  0  0  0  0  0
  190.8002  160.3450  122.2022 C   0  0  0  0  0  0  0  0  0  0  0  0
  190.5727  159.0127  122.2843 C   0  0  0  0  0  0  0  0  0  0  0  0
  191.3475  158.0343  121.5246 C   0  0  0  0  0  0  0  0  0  0  0  0
  191.4834  156.8149  122.1599 C   0  0  0  0  0  0  0  0  0  0  0  0
  189.8429  160.9762  123.0981 C   0  0  0  0  0  0  0  0  0  0  0  0
  189.7944  160.3771  124.2705 O   0  0  0  0  0  0  0  0  0  0  0  0
  188.9897  162.0594  122.9700 N   0  0  0  0  0  0  0  0  0  0  0  0
  189.1763  163.1962  123.9034 C   0  0  0  0  0  0  0  0  0  0  0  0
  187.8826  162.2530  122.0541 C   0  0  0  0  0  0  0  0  0  0  0  0
  188.2225  163.2681  121.0272 C   0  0  0  0  0  0  0  0  0  0  0  0
  187.8793  164.5656  121.2633 O   0  0  0  0  0  0  0  0  0  0  0  0
  187.1670  165.0753  120.1954 C   0  0  0  0  0  0  0  0  0  0  0  0
  187.5074  166.4720  119.7893 C   0  0  0  0  0  0  0  0  0  0  0  0
  188.2890  166.5529  118.5484 N   0  0  0  0  0  0  0  0  0  0  0  0
  188.7520  167.9145  118.3547 C   0  0  0  0  0  0  0  0  0  0  0  0
  189.6817  165.5493  118.6579 S   0  0  0  0  0  6  0  0  0  0  0  0
  190.1848  165.6633  120.0428 O   0  0  0  0  0  0  0  0  0  0  0  0
  189.3158  164.1167  118.2609 O   0  0  0  0  0  0  0  0  0  0  0  0
  190.9148  165.9491  117.4890 N   0  0  0  0  0  0  0  0  0  0  0  0
  191.7949  164.8988  117.0456 C   0  0  0  0  0  0  0  0  0  0  0  0
  192.5808  165.2916  116.1062 O   0  0  0  0  0  0  0  0  0  0  0  0
  1  2  1  0
  2  3  1  0
  3  4  2  0
  4  5  1  0
  5  6  2  0
  6  7  1  0
  7  8  2  0
  8  9  1  0
  9 10  1  0
 10 11  1  0
 11 12  1  0
 12 13  1  0
 13 14  1  0
  8 15  1  0
 15 16  2  0
 16 17  1  0
 17 18  2  0
 18 19  1  0
 19 20  2  0
 20 21  1  0
 21 22  1  0
 22 23  1  0
 23 24  2  0
 24 25  1  0
 25 26  2  0
 23 27  1  0
 27 28  2  0
 27 29  1  0
 29 30  1  0
 29 31  1  0
 31 32  1  0
 32 33  1  0
 33 34  1  0
 34 35  1  0
 35 36  1  0
 36 37  1  0
 36 38  1  0
 38 39  2  0
 38 40  2  0
 38 41  1  0
 41 42  1  0
 42 43  2  0
 26  3  1  0
 25  6  1  0
 21  7  1  0
 14  9  1  0
 20 15  1  0
 42 18  1  0
M  END
$$$$
