
     RDKit          3D

 43 48  0  0  0  0  0  0  0  0999 V2000
  197.6630  155.7066  122.6099 C   0  0  0  0  0  0  0  0  0  0  0  0
  196.4117  156.1449  123.0327 O   0  0  0  0  0  0  0  0  0  0  0  0
  195.5501  156.9126  122.2712 C   0  0  0  0  0  0  0  0  0  0  0  0
  194.2905  156.4364  121.8846 C   0  0  0  0  0  0  0  0  0  0  0  0
  193.4357  157.2005  121.1304 C   0  0  0  0  0  0  0  0  0  0  0  0
  193.8667  158.4527  120.7734 C   0  0  0  0  0  0  0  0  0  0  0  0
  192.8672  159.2132  120.0075 C   0  0  0  0  0  0  0  0  0  0  0  0
  191.5425  159.0871  120.2816 C   0  0  0  0  0  0  0  0  0  0  0  0
  190.9251  158.4363  121.4190 C   0  0  0  0  0  0  0  0  0  0  0  0
  191.7805  157.1453  121.7157 C   0  0  0  0  0  0  0  0  0  0  0  0
  191.3274  156.6596  123.0519 C   0  0  0  0  0  0  0  0  0  0  0  0
  189.9017  157.0217  123.4030 C   0  0  0  0  0  0  0  0  0  0  0  0
  189.6465  158.5121  123.4352 C   0  0  0  0  0  0  0  0  0  0  0  0
  190.8885  159.1178  122.7232 C   0  0  0  0  0  0  0  0  0  0  0  0
  190.9454  159.8712  119.2961 C   0  0  0  0  0  0  0  0  0  0  0  0
  189.5920  160.0565  119.1408 C   0  0  0  0  0  0  0  0  0  0  0  0
  189.2231  160.8709  118.1022 C   0  0  0  0  0  0  0  0  0  0  0  0
  190.1657  161.4906  117.2334 C   0  0  0  0  0  0  0  0  0  0  0  0
  191.5236  161.2840  117.4078 C   0  0  0  0  0  0  0  0  0  0  0  0
  191.9068  160.4619  118.4584 C   0  0  0  0  0  0  0  0  0  0  0  0
  193.0753  160.0398  118.9236 N   0  0  0  0  0  0  0  0  0  0  0  0
  194.4424  160.3383  118.5153 C   0  0  0  0  0  0  0  0  0  0  0  0
  195.3738  160.8366  119.5522 C   0  0  0  0  0  0  0  0  0  0  0  0
  195.7094  160.2259  120.7133 C   0  0  0  0  0  0  0  0  0  0  0  0
  195.1168  158.9588  121.1353 C   0  0  0  0  0  0  0  0  0  0  0  0
  195.9617  158.1731  121.8954 C   0  0  0  0  0  0  0  0  0  0  0  0
  196.1710  162.0522  119.4877 C   0  0  0  0  0  0  0  0  0  0  0  0
  197.4351  161.8302  119.7855 O   0  0  0  0  0  0  0  0  0  0  0  0
  195.8751  163.3699  119.1815 N   0  0  0  0  0  0  0  0  0  0  0  0
  196.5745  163.9813  118.0258 C   0  0  0  0  0  0  0  0  0  0  0  0
  194.9795  164.2903  119.8544 C   0  0  0  0  0  0  0  0  0  0  0  0
  193.7708  164.5419  119.0321 C   0  0  0  0  0  0  0  0  0  0  0  0
  193.7747  165.6127  118.1892 O   0  0  0  0  0  0  0  0  0  0  0  0
  192.6570  166.3955  118.4031 C   0  0  0  0  0  0  0  0  0  0  0  0
  191.9873  166.9277  117.1785 C   0  0  0  0  0  0  0  0  0  0  0  0
  190.7256  166.2498  116.8529 N   0  0  0  0  0  0  0  0  0  0  0  0
  190.2666  166.6812  115.5456 C   0  0  0  0  0  0  0  0  0  0  0  0
  190.9691  164.5488  116.7744 S   0  0  0  0  0  6  0  0  0  0  0  0
  192.2900  164.3330  116.1476 O   0  0  0  0  0  0  0  0  0  0  0  0
  190.8578  163.9479  118.1781 O   0  0  0  0  0  0  0  0  0  0  0  0
  189.7030  163.7088  115.9154 N   0  0  0  0  0  0  0  0  0  0  0  0
  189.4305  162.3413  116.2764 C   0  0  0  0  0  0  0  0  0  0  0  0
  188.4070  161.8723  115.6544 O   0  0  0  0  0  0  0  0  0  0  0  0
  1  2  1  0
  2  3  1  0
  3  4  2  0
  4  5  1  0
  5  6  2  0
  6  7  1  0
  7  8  2  0
  8  9  1  0
  9 10  1  0
 10 11  1  0
 11 12  1  0
 12 13  1  0
 13 14  1  0
  8 15  1  0
 15 16  2  0
 16 17  1  0
 17 18  2  0
 18 19  1  0
 19 20  2  0
 20 21  1  0
 21 22  1  0
 22 23  1  0
 23 24  2  0
 24 25  1  0
 25 26  2  0
 23 27  1  0
 27 28  2  0
 27 29  1  0
 29 30  1  0
 29 31  1  0
 31 32  1  0
 32 33  1  0
 33 34  1  0
 34 35  1  0
 35 36  1  0
 36 37  1  0
 36 38  1  0
 38 39  2  0
 38 40  2  0
 38 41  1  0
 41 42  1  0
 42 43  2  0
 26  3  1  0
 25  6  1  0
 21  7  1  0
 14  9  1  0
 20 15  1  0
 42 18  1  0
M  END
$$$$
