
 OpenBabel01122422533D

 44 47  0  0  0  0  0  0  0  0999 V2000
    6.9198    0.0521   -0.0849 O   0  0  0  0  0  0  0  0  0  0  0  0
    6.1905    0.8399    0.4942 C   0  0  0  0  0  0  0  0  0  0  0  0
    4.9220    1.1682    0.1839 O   0  0  0  0  0  0  0  0  0  0  0  0
    4.3890    0.5327   -0.9858 C   0  0  0  0  0  0  0  0  0  0  0  0
    4.7929    1.2956   -2.2231 C   0  0  0  0  0  0  0  0  0  0  0  0
    4.4629    2.6526   -2.3692 C   0  0  0  0  0  0  0  0  0  0  0  0
    4.9208    3.3745   -3.4724 C   0  0  0  0  0  0  0  0  0  0  0  0
    4.6417    4.7169   -3.4806 O   0  0  0  0  0  0  0  0  0  0  0  0
    5.5861    5.4992   -4.2246 C   0  0  0  0  0  0  0  0  0  0  0  0
    5.6008    6.9159   -3.7257 C   0  0  0  0  0  0  0  0  0  0  0  0
    4.4358    7.5520   -3.2786 C   0  0  0  0  0  0  0  0  0  0  0  0
    4.4998    8.8599   -2.7962 C   0  0  0  0  0  0  0  0  0  0  0  0
    5.7200    9.5295   -2.7813 C   0  0  0  0  0  0  0  0  0  0  0  0
    5.7784   10.7788   -2.2983 F   0  0  0  0  0  0  0  0  0  0  0  0
    6.8742    8.9300   -3.2564 C   0  0  0  0  0  0  0  0  0  0  0  0
    6.8033    7.6298   -3.7345 C   0  0  0  0  0  0  0  0  0  0  0  0
    7.9197    7.0541   -4.2039 F   0  0  0  0  0  0  0  0  0  0  0  0
    5.6447    2.7235   -4.4747 C   0  0  0  0  0  0  0  0  0  0  0  0
    5.9659    1.3807   -4.3440 C   0  0  0  0  0  0  0  0  0  0  0  0
    5.5486    0.6683   -3.2234 C   0  0  0  0  0  0  0  0  0  0  0  0
    6.6900    1.6592    1.6872 C   0  0  0  0  0  0  0  0  0  0  0  0
    5.8554    1.9955    2.6307 N   0  0  0  0  0  0  0  0  0  0  0  0
    6.3625    2.7589    3.6446 C   0  0  0  0  0  0  0  0  0  0  0  0
    5.7403    3.2720    4.6873 N   0  0  0  0  0  0  0  0  0  0  0  0
    6.6806    3.9924    5.3780 C   0  0  0  0  0  0  0  0  0  0  0  0
    7.9098    3.9084    4.7698 C   0  0  0  0  0  0  0  0  0  0  0  0
    7.7067    3.1285    3.6630 N   0  0  0  0  0  0  0  0  0  0  0  0
    8.5976    2.7410    2.6748 C   0  0  0  0  0  0  0  0  0  0  0  0
    8.1528    2.0022    1.6495 C   0  0  0  0  0  0  0  0  0  0  0  0
    3.2960    0.5338   -0.9031 H   0  0  0  0  0  0  0  0  0  0  0  0
    4.6941   -0.5206   -1.0351 H   0  0  0  0  0  0  0  0  0  0  0  0
    3.8839    3.1577   -1.5969 H   0  0  0  0  0  0  0  0  0  0  0  0
    5.3115    5.4934   -5.2860 H   0  0  0  0  0  0  0  0  0  0  0  0
    6.5965    5.0899   -4.0957 H   0  0  0  0  0  0  0  0  0  0  0  0
    3.4826    7.0277   -3.2871 H   0  0  0  0  0  0  0  0  0  0  0  0
    3.6081    9.3551   -2.4254 H   0  0  0  0  0  0  0  0  0  0  0  0
    7.8200    9.4623   -3.2484 H   0  0  0  0  0  0  0  0  0  0  0  0
    5.9858    3.2512   -5.3598 H   0  0  0  0  0  0  0  0  0  0  0  0
    6.5647    0.8951   -5.1111 H   0  0  0  0  0  0  0  0  0  0  0  0
    5.8330   -0.3783   -3.1262 H   0  0  0  0  0  0  0  0  0  0  0  0
    6.4191    4.5373    6.2763 H   0  0  0  0  0  0  0  0  0  0  0  0
    8.8713    4.3355    5.0139 H   0  0  0  0  0  0  0  0  0  0  0  0
    9.6269    3.0626    2.7740 H   0  0  0  0  0  0  0  0  0  0  0  0
    8.7710    1.6553    0.8321 H   0  0  0  0  0  0  0  0  0  0  0  0
  1  2  2  0  0  0  0
  2  3  1  0  0  0  0
  2 21  1  0  0  0  0
  3  4  1  0  0  0  0
  4  5  1  0  0  0  0
  4 30  1  0  0  0  0
  4 31  1  0  0  0  0
  5  6  2  0  0  0  0
  5 20  1  0  0  0  0
  6  7  1  0  0  0  0
  6 32  1  0  0  0  0
  7  8  1  0  0  0  0
  7 18  2  0  0  0  0
  8  9  1  0  0  0  0
  9 10  1  0  0  0  0
  9 33  1  0  0  0  0
  9 34  1  0  0  0  0
 10 11  2  0  0  0  0
 10 16  1  0  0  0  0
 11 12  1  0  0  0  0
 11 35  1  0  0  0  0
 12 13  2  0  0  0  0
 12 36  1  0  0  0  0
 13 14  1  0  0  0  0
 13 15  1  0  0  0  0
 15 16  2  0  0  0  0
 15 37  1  0  0  0  0
 16 17  1  0  0  0  0
 18 19  1  0  0  0  0
 18 38  1  0  0  0  0
 19 20  2  0  0  0  0
 19 39  1  0  0  0  0
 20 40  1  0  0  0  0
 21 22  2  0  0  0  0
 21 29  1  0  0  0  0
 22 23  1  0  0  0  0
 23 24  2  0  0  0  0
 23 27  1  0  0  0  0
 24 25  1  0  0  0  0
 25 26  2  0  0  0  0
 25 41  1  0  0  0  0
 26 27  1  0  0  0  0
 26 42  1  0  0  0  0
 27 28  1  0  0  0  0
 28 29  2  0  0  0  0
 28 43  1  0  0  0  0
 29 44  1  0  0  0  0
M  END
$$$$
