
 OpenBabel01122422463D

 59 62  0  0  1  0  0  0  0  0999 V2000
   -0.0028   -4.4211   -3.7318 C   0  0  0  0  0  0  0  0  0  0  0  0
    1.3779   -4.7532   -3.7007 O   0  0  0  0  0  0  0  0  0  0  0  0
    2.2686   -3.7239   -3.8707 C   0  0  0  0  0  0  0  0  0  0  0  0
    1.9497   -2.4042   -4.1684 C   0  0  0  0  0  0  0  0  0  0  0  0
    2.9746   -1.4569   -4.2841 C   0  0  0  0  0  0  0  0  0  0  0  0
    4.3121   -1.8039   -4.0571 C   0  0  0  0  0  0  0  0  0  0  0  0
    4.6646   -3.1120   -3.7069 C   0  0  0  0  0  0  0  0  0  0  0  0
    6.1032   -3.5442   -3.4130 C   0  0  3  0  0  0  0  0  0  0  0  0
    6.5204   -4.4317   -4.4573 O   0  0  0  0  0  0  0  0  0  0  0  0
    7.1524   -2.3975   -3.2065 C   0  0  0  0  0  0  0  0  0  0  0  0
    8.5376   -2.8544   -2.9313 N   0  0  0  0  0  0  0  0  0  0  0  0
    8.8482   -3.2808   -1.5649 C   0  0  0  0  0  0  0  0  0  0  0  0
    9.6468   -2.2657   -0.7626 C   0  0  0  0  0  0  0  0  0  0  0  0
    9.8736   -0.9531   -1.2080 C   0  0  0  0  0  0  0  0  0  0  0  0
   10.6807   -0.0794   -0.4754 C   0  0  0  0  0  0  0  0  0  0  0  0
   11.2468   -0.4940    0.7262 C   0  0  0  0  0  0  0  0  0  0  0  0
   10.9963   -1.7758    1.2052 C   0  0  0  0  0  0  0  0  0  0  0  0
   10.2004   -2.6554    0.4660 C   0  0  0  0  0  0  0  0  0  0  0  0
    9.4181   -2.9370   -4.0247 C   0  0  0  0  0  0  0  0  0  0  0  0
    9.1330   -2.4849   -5.1328 O   0  0  0  0  0  0  0  0  0  0  0  0
   10.6643   -3.7471   -3.9223 C   0  0  0  0  0  0  0  0  0  0  0  0
   10.7457   -4.7868   -4.8637 C   0  0  0  0  0  0  0  0  0  0  0  0
   11.6537   -5.8067   -4.6777 C   0  0  0  0  0  0  0  0  0  0  0  0
   12.5228   -5.6962   -3.6116 C   0  0  0  0  0  0  0  0  0  0  0  0
   13.5061   -6.7184   -3.3279 C   0  0  0  0  0  0  0  0  0  0  0  0
   13.2009   -7.8127   -2.8852 O   0  0  0  0  0  0  0  0  0  0  0  0
   14.7514   -6.2499   -3.6217 N   0  0  0  0  0  0  0  0  0  0  0  0
   15.3980   -6.9392   -4.7121 C   0  0  0  0  0  0  0  0  0  0  0  0
   15.1210   -4.9885   -3.1750 C   0  0  0  0  0  0  0  0  0  0  0  0
   16.2436   -4.5125   -3.3099 O   0  0  0  0  0  0  0  0  0  0  0  0
   14.0850   -4.2279   -2.5994 N   0  0  0  0  0  0  0  0  0  0  0  0
   12.7471   -4.4774   -3.0008 C   0  0  0  0  0  0  0  0  0  0  0  0
   11.7461   -3.5177   -3.0390 C   0  0  0  0  0  0  0  0  0  0  0  0
    3.6140   -4.0608   -3.6318 C   0  0  0  0  0  0  0  0  0  0  0  0
   -0.5659   -5.3304   -3.5066 H   0  0  0  0  0  0  0  0  0  0  0  0
   -0.3053   -4.0820   -4.7282 H   0  0  0  0  0  0  0  0  0  0  0  0
   -0.2534   -3.6767   -2.9676 H   0  0  0  0  0  0  0  0  0  0  0  0
    0.9323   -2.0951   -4.3608 H   0  0  0  0  0  0  0  0  0  0  0  0
    2.7182   -0.4361   -4.5565 H   0  0  0  0  0  0  0  0  0  0  0  0
    5.0581   -1.0219   -4.1704 H   0  0  0  0  0  0  0  0  0  0  0  0
    6.0807   -4.1417   -2.4940 H   0  0  0  0  0  0  0  0  0  0  0  0
    6.4888   -3.9281   -5.2900 H   0  0  0  0  0  0  0  0  0  0  0  0
    6.8430   -1.7454   -2.3813 H   0  0  0  0  0  0  0  0  0  0  0  0
    7.1773   -1.7805   -4.1098 H   0  0  0  0  0  0  0  0  0  0  0  0
    9.4025   -4.2241   -1.6122 H   0  0  0  0  0  0  0  0  0  0  0  0
    7.9141   -3.4751   -1.0240 H   0  0  0  0  0  0  0  0  0  0  0  0
    9.4520   -0.5996   -2.1469 H   0  0  0  0  0  0  0  0  0  0  0  0
   10.8751    0.9218   -0.8519 H   0  0  0  0  0  0  0  0  0  0  0  0
   11.8830    0.1847    1.2907 H   0  0  0  0  0  0  0  0  0  0  0  0
   11.4279   -2.0950    2.1514 H   0  0  0  0  0  0  0  0  0  0  0  0
   10.0228   -3.6558    0.8589 H   0  0  0  0  0  0  0  0  0  0  0  0
   10.0768   -4.8062   -5.7211 H   0  0  0  0  0  0  0  0  0  0  0  0
   11.7270   -6.6364   -5.3722 H   0  0  0  0  0  0  0  0  0  0  0  0
   14.6507   -7.0458   -5.5156 H   0  0  0  0  0  0  0  0  0  0  0  0
   15.6717   -7.9525   -4.4081 H   0  0  0  0  0  0  0  0  0  0  0  0
   16.2450   -6.3849   -5.1131 H   0  0  0  0  0  0  0  0  0  0  0  0
   14.3495   -3.2928   -2.3167 H   0  0  0  0  0  0  0  0  0  0  0  0
   11.8154   -2.6075   -2.4641 H   0  0  0  0  0  0  0  0  0  0  0  0
    3.8641   -5.0984   -3.3966 H   0  0  0  0  0  0  0  0  0  0  0  0
  1  2  1  0  0  0  0
  1 35  1  0  0  0  0
  1 36  1  0  0  0  0
  1 37  1  0  0  0  0
  2  3  1  0  0  0  0
  3  4  2  0  0  0  0
  3 34  1  0  0  0  0
  4  5  1  0  0  0  0
  4 38  1  0  0  0  0
  5  6  2  0  0  0  0
  5 39  1  0  0  0  0
  6  7  1  0  0  0  0
  6 40  1  0  0  0  0
  7  8  1  0  0  0  0
  7 34  2  0  0  0  0
  8  9  1  0  0  0  0
  8 10  1  0  0  0  0
  8 41  1  0  0  0  0
  9 42  1  0  0  0  0
 10 11  1  0  0  0  0
 10 43  1  0  0  0  0
 10 44  1  0  0  0  0
 11 12  1  0  0  0  0
 11 19  1  0  0  0  0
 12 13  1  0  0  0  0
 12 45  1  0  0  0  0
 12 46  1  0  0  0  0
 13 14  2  0  0  0  0
 13 18  1  0  0  0  0
 14 15  1  0  0  0  0
 14 47  1  0  0  0  0
 15 16  2  0  0  0  0
 15 48  1  0  0  0  0
 16 17  1  0  0  0  0
 16 49  1  0  0  0  0
 17 18  2  0  0  0  0
 17 50  1  0  0  0  0
 18 51  1  0  0  0  0
 19 20  2  0  0  0  0
 19 21  1  0  0  0  0
 21 22  2  0  0  0  0
 21 33  1  0  0  0  0
 22 23  1  0  0  0  0
 22 52  1  0  0  0  0
 23 24  2  0  0  0  0
 23 53  1  0  0  0  0
 24 25  1  0  0  0  0
 24 32  1  0  0  0  0
 25 26  2  0  0  0  0
 25 27  1  0  0  0  0
 27 28  1  0  0  0  0
 27 29  1  0  0  0  0
 28 54  1  0  0  0  0
 28 55  1  0  0  0  0
 28 56  1  0  0  0  0
 29 30  2  0  0  0  0
 29 31  1  0  0  0  0
 31 32  1  0  0  0  0
 31 57  1  0  0  0  0
 32 33  2  0  0  0  0
 33 58  1  0  0  0  0
 34 59  1  0  0  0  0
M  END
$$$$
