
 OpenBabel01122422463D

 49 52  0  0  1  0  0  0  0  0999 V2000
    3.9028   -2.9369   -0.5187 O   0  0  0  0  0  0  0  0  0  0  0  0
    3.7515   -1.7204   -0.4187 C   0  0  0  0  0  0  0  0  0  0  0  0
    2.9846   -1.1404    0.5635 N   0  0  0  0  0  0  0  0  0  0  0  0
    2.3289   -1.9385    1.5978 C   0  0  3  0  0  0  0  0  0  0  0  0
    1.1783   -2.7574    0.9687 C   0  0  0  0  0  0  0  0  0  0  0  0
    0.0604   -2.2439    0.8649 O   0  0  0  0  0  0  0  0  0  0  0  0
    1.5151   -4.0171    0.4977 N   0  0  0  0  0  0  0  0  0  0  0  0
    0.6135   -4.8884   -0.0834 C   0  0  0  0  0  0  0  0  0  0  0  0
   -0.5960   -4.5821   -0.6499 C   0  0  0  0  0  0  0  0  0  0  0  0
   -1.2126   -5.7677   -0.9807 N   0  0  0  0  0  0  0  0  0  0  0  0
   -2.5127   -5.8711   -1.5590 C   0  0  0  0  0  0  0  0  0  0  0  0
   -2.9377   -4.7807   -2.2747 N   0  0  0  0  0  0  0  0  0  0  0  0
   -4.1407   -4.8514   -2.8790 C   0  0  0  0  0  0  0  0  0  0  0  0
   -4.9789   -5.9441   -2.7771 C   0  0  0  0  0  0  0  0  0  0  0  0
   -4.5593   -7.0247   -2.0060 C   0  0  0  0  0  0  0  0  0  0  0  0
   -3.3052   -7.0078   -1.3853 C   0  0  0  0  0  0  0  0  0  0  0  0
   -2.9522   -8.3362   -0.3405 Cl  0  0  0  0  0  0  0  0  0  0  0  0
   -0.3941   -6.8292   -0.7452 N   0  0  0  0  0  0  0  0  0  0  0  0
    0.7167   -6.2836   -0.2392 C   0  0  0  0  0  0  0  0  0  0  0  0
    3.2878   -2.6399    2.5554 C   0  0  0  0  0  0  0  0  0  0  0  0
    4.5309   -2.0417    2.8528 C   0  0  0  0  0  0  0  0  0  0  0  0
    5.4016   -2.6000    3.7895 C   0  0  0  0  0  0  0  0  0  0  0  0
    5.0479   -3.7651    4.4577 C   0  0  0  0  0  0  0  0  0  0  0  0
    3.8209   -4.3693    4.1935 C   0  0  0  0  0  0  0  0  0  0  0  0
    2.9423   -3.8044    3.2654 C   0  0  0  0  0  0  0  0  0  0  0  0
    4.4130   -0.8106   -1.3858 C   0  0  0  0  0  0  0  0  0  0  0  0
    4.5967   -1.2603   -2.6981 C   0  0  0  0  0  0  0  0  0  0  0  0
    5.3126   -0.4856   -3.6111 C   0  0  0  0  0  0  0  0  0  0  0  0
    5.8543    0.7360   -3.2136 C   0  0  0  0  0  0  0  0  0  0  0  0
    5.6680    1.1928   -1.9077 C   0  0  0  0  0  0  0  0  0  0  0  0
    4.9433    0.4249   -0.9910 C   0  0  0  0  0  0  0  0  0  0  0  0
    2.6909   -0.1750    0.4607 H   0  0  0  0  0  0  0  0  0  0  0  0
    1.8174   -1.2009    2.2371 H   0  0  0  0  0  0  0  0  0  0  0  0
    2.4726   -4.3387    0.6277 H   0  0  0  0  0  0  0  0  0  0  0  0
   -1.1016   -3.6403   -0.8094 H   0  0  0  0  0  0  0  0  0  0  0  0
   -4.4201   -3.9793   -3.4647 H   0  0  0  0  0  0  0  0  0  0  0  0
   -5.9443   -5.9509   -3.2705 H   0  0  0  0  0  0  0  0  0  0  0  0
   -5.2231   -7.8758   -1.8743 H   0  0  0  0  0  0  0  0  0  0  0  0
    1.5286   -6.9407    0.0444 H   0  0  0  0  0  0  0  0  0  0  0  0
    4.8293   -1.1206    2.3595 H   0  0  0  0  0  0  0  0  0  0  0  0
    6.3512   -2.1167    3.9981 H   0  0  0  0  0  0  0  0  0  0  0  0
    5.7225   -4.1971    5.1921 H   0  0  0  0  0  0  0  0  0  0  0  0
    3.5413   -5.2774    4.7238 H   0  0  0  0  0  0  0  0  0  0  0  0
    1.9790   -4.2895    3.1204 H   0  0  0  0  0  0  0  0  0  0  0  0
    4.1964   -2.2240   -3.0045 H   0  0  0  0  0  0  0  0  0  0  0  0
    5.4645   -0.8468   -4.6258 H   0  0  0  0  0  0  0  0  0  0  0  0
    6.4350    1.3253   -3.9198 H   0  0  0  0  0  0  0  0  0  0  0  0
    6.1109    2.1376   -1.6001 H   0  0  0  0  0  0  0  0  0  0  0  0
    4.8467    0.7772    0.0320 H   0  0  0  0  0  0  0  0  0  0  0  0
  1  2  2  0  0  0  0
  2  3  1  0  0  0  0
  2 26  1  0  0  0  0
  3  4  1  0  0  0  0
  3 32  1  0  0  0  0
  4  5  1  0  0  0  0
  4 20  1  0  0  0  0
  4 33  1  0  0  0  0
  5  6  2  0  0  0  0
  5  7  1  0  0  0  0
  7  8  1  0  0  0  0
  7 34  1  0  0  0  0
  8  9  2  0  0  0  0
  8 19  1  0  0  0  0
  9 10  1  0  0  0  0
  9 35  1  0  0  0  0
 10 11  1  0  0  0  0
 10 18  1  0  0  0  0
 11 12  2  0  0  0  0
 11 16  1  0  0  0  0
 12 13  1  0  0  0  0
 13 14  2  0  0  0  0
 13 36  1  0  0  0  0
 14 15  1  0  0  0  0
 14 37  1  0  0  0  0
 15 16  2  0  0  0  0
 15 38  1  0  0  0  0
 16 17  1  0  0  0  0
 18 19  2  0  0  0  0
 19 39  1  0  0  0  0
 20 21  2  0  0  0  0
 20 25  1  0  0  0  0
 21 22  1  0  0  0  0
 21 40  1  0  0  0  0
 22 23  2  0  0  0  0
 22 41  1  0  0  0  0
 23 24  1  0  0  0  0
 23 42  1  0  0  0  0
 24 25  2  0  0  0  0
 24 43  1  0  0  0  0
 25 44  1  0  0  0  0
 26 27  2  0  0  0  0
 26 31  1  0  0  0  0
 27 28  1  0  0  0  0
 27 45  1  0  0  0  0
 28 29  2  0  0  0  0
 28 46  1  0  0  0  0
 29 30  1  0  0  0  0
 29 47  1  0  0  0  0
 30 31  2  0  0  0  0
 30 48  1  0  0  0  0
 31 49  1  0  0  0  0
M  END
$$$$
