
 OpenBabel01122422463D

 45 48  0  0  0  0  0  0  0  0999 V2000
    0.6791   -0.1577   -0.0050 C   0  0  0  0  0  0  0  0  0  0  0  0
    1.2860   -0.5961   -1.2999 C   0  0  0  0  0  0  0  0  0  0  0  0
    1.1622    0.1004   -2.4408 C   0  0  0  0  0  0  0  0  0  0  0  0
    1.8286   -0.3164   -3.6422 C   0  0  0  0  0  0  0  0  0  0  0  0
    2.6086   -1.3983   -3.6279 C   0  0  0  0  0  0  0  0  0  0  0  0
    2.7584   -2.1822   -2.4878 N   0  0  0  0  0  0  0  0  0  0  0  0
    3.6138   -3.2768   -2.5460 C   0  0  0  0  0  0  0  0  0  0  0  0
    4.3500   -3.5094   -3.5063 O   0  0  0  0  0  0  0  0  0  0  0  0
    3.6262   -4.1549   -1.3536 C   0  0  0  0  0  0  0  0  0  0  0  0
    4.3627   -5.4302   -1.3703 C   0  0  0  0  0  0  0  0  0  0  0  0
    4.7228   -6.0065   -2.3876 O   0  0  0  0  0  0  0  0  0  0  0  0
    4.5867   -5.8946   -0.1109 O   0  0  0  0  0  0  0  0  0  0  0  0
    5.2377   -7.1751   -0.0707 C   0  0  0  0  0  0  0  0  0  0  0  0
    4.2999   -8.2892   -0.3700 C   0  0  0  0  0  0  0  0  0  0  0  0
    4.0510   -8.9202   -1.5674 C   0  0  0  0  0  0  0  0  0  0  0  0
    3.1117   -9.8799   -1.3523 O   0  0  0  0  0  0  0  0  0  0  0  0
    2.8286   -9.7793   -0.0139 C   0  0  0  0  0  0  0  0  0  0  0  0
    1.8330  -10.7082    0.5023 C   0  0  0  0  0  0  0  0  0  0  0  0
    0.7249  -11.0111   -0.3191 C   0  0  0  0  0  0  0  0  0  0  0  0
   -0.2938  -11.8598    0.1116 C   0  0  0  0  0  0  0  0  0  0  0  0
   -0.2261  -12.4247    1.3765 C   0  0  0  0  0  0  0  0  0  0  0  0
    0.8613  -12.1424    2.2013 C   0  0  0  0  0  0  0  0  0  0  0  0
    1.9107  -11.2903    1.7826 C   0  0  0  0  0  0  0  0  0  0  0  0
    3.0458  -11.0995    2.7666 C   0  0  0  0  0  0  0  0  0  0  0  0
    4.1479  -10.4355    2.3413 F   0  0  0  0  0  0  0  0  0  0  0  0
    2.6324  -10.4614    3.9001 F   0  0  0  0  0  0  0  0  0  0  0  0
    3.5252  -12.3073    3.1978 F   0  0  0  0  0  0  0  0  0  0  0  0
    3.4847   -8.8209    0.6032 N   0  0  0  0  0  0  0  0  0  0  0  0
    2.8959   -3.7543   -0.3043 C   0  0  0  0  0  0  0  0  0  0  0  0
    2.1623   -2.6000   -0.2362 N   0  0  0  0  0  0  0  0  0  0  0  0
    2.0974   -1.8646   -1.3044 C   0  0  0  0  0  0  0  0  0  0  0  0
    0.1339    0.7863   -0.1141 H   0  0  0  0  0  0  0  0  0  0  0  0
    1.4606    0.0026    0.7455 H   0  0  0  0  0  0  0  0  0  0  0  0
   -0.0242   -0.9061    0.3723 H   0  0  0  0  0  0  0  0  0  0  0  0
    0.5842    1.0186   -2.4830 H   0  0  0  0  0  0  0  0  0  0  0  0
    1.7143    0.2777   -4.5434 H   0  0  0  0  0  0  0  0  0  0  0  0
    3.1462   -1.7161   -4.5187 H   0  0  0  0  0  0  0  0  0  0  0  0
    5.6284   -7.2996    0.9448 H   0  0  0  0  0  0  0  0  0  0  0  0
    6.1094   -7.1882   -0.7370 H   0  0  0  0  0  0  0  0  0  0  0  0
    4.4125   -8.8094   -2.5801 H   0  0  0  0  0  0  0  0  0  0  0  0
    0.6434  -10.5650   -1.3105 H   0  0  0  0  0  0  0  0  0  0  0  0
   -1.1382  -12.0708   -0.5396 H   0  0  0  0  0  0  0  0  0  0  0  0
   -1.0170  -13.0857    1.7228 H   0  0  0  0  0  0  0  0  0  0  0  0
    0.9007  -12.5982    3.1916 H   0  0  0  0  0  0  0  0  0  0  0  0
    2.8350   -4.3680    0.5927 H   0  0  0  0  0  0  0  0  0  0  0  0
  1  2  1  0  0  0  0
  1 32  1  0  0  0  0
  1 33  1  0  0  0  0
  1 34  1  0  0  0  0
  2  3  2  0  0  0  0
  2 31  1  0  0  0  0
  3  4  1  0  0  0  0
  3 35  1  0  0  0  0
  4  5  2  0  0  0  0
  4 36  1  0  0  0  0
  5  6  1  0  0  0  0
  5 37  1  0  0  0  0
  6  7  1  0  0  0  0
  6 31  1  0  0  0  0
  7  8  2  0  0  0  0
  7  9  1  0  0  0  0
  9 10  1  0  0  0  0
  9 29  2  0  0  0  0
 10 11  2  0  0  0  0
 10 12  1  0  0  0  0
 12 13  1  0  0  0  0
 13 14  1  0  0  0  0
 13 38  1  0  0  0  0
 13 39  1  0  0  0  0
 14 15  2  0  0  0  0
 14 28  1  0  0  0  0
 15 16  1  0  0  0  0
 15 40  1  0  0  0  0
 16 17  1  0  0  0  0
 17 18  1  0  0  0  0
 17 28  2  0  0  0  0
 18 19  2  0  0  0  0
 18 23  1  0  0  0  0
 19 20  1  0  0  0  0
 19 41  1  0  0  0  0
 20 21  2  0  0  0  0
 20 42  1  0  0  0  0
 21 22  1  0  0  0  0
 21 43  1  0  0  0  0
 22 23  2  0  0  0  0
 22 44  1  0  0  0  0
 23 24  1  0  0  0  0
 24 25  1  0  0  0  0
 24 26  1  0  0  0  0
 24 27  1  0  0  0  0
 29 30  1  0  0  0  0
 29 45  1  0  0  0  0
 30 31  2  0  0  0  0
M  END
$$$$
