
 OpenBabel01122422463D

 46 49  0  0  0  0  0  0  0  0999 V2000
    1.1184    0.1193    0.2298 O   0  0  0  0  0  0  0  0  0  0  0  0
    2.3469    0.1296    0.2574 C   0  0  0  0  0  0  0  0  0  0  0  0
    3.0875   -1.0128    0.4726 N   0  0  0  0  0  0  0  0  0  0  0  0
    2.4220   -2.2845    0.5245 C   0  0  0  0  0  0  0  0  0  0  0  0
    3.3287   -3.4889    0.6568 C   0  0  0  0  0  0  0  0  0  0  0  0
    4.6696   -3.2246    0.5466 N   0  0  0  0  0  0  0  0  0  0  0  0
    5.5292   -4.2490    0.6994 C   0  0  0  0  0  0  0  0  0  0  0  0
    5.1285   -5.5446    0.9453 C   0  0  0  0  0  0  0  0  0  0  0  0
    3.7615   -5.8087    1.0246 C   0  0  0  0  0  0  0  0  0  0  0  0
    2.8021   -4.7856    0.8827 C   0  0  0  0  0  0  0  0  0  0  0  0
    1.3478   -5.0980    1.0390 C   0  0  0  0  0  0  0  0  0  0  0  0
    0.9026   -6.0277    1.9999 C   0  0  0  0  0  0  0  0  0  0  0  0
   -0.4608   -6.2612    2.2282 C   0  0  0  0  0  0  0  0  0  0  0  0
   -1.4212   -5.5441    1.5251 C   0  0  0  0  0  0  0  0  0  0  0  0
   -1.0181   -4.6528    0.5424 C   0  0  0  0  0  0  0  0  0  0  0  0
    0.3436   -4.4777    0.2727 C   0  0  0  0  0  0  0  0  0  0  0  0
    3.1562    1.3336    0.0587 C   0  0  0  0  0  0  0  0  0  0  0  0
    4.5029    1.2823    0.0419 N   0  0  0  0  0  0  0  0  0  0  0  0
    4.9078    2.5712   -0.0733 N   0  0  0  0  0  0  0  0  0  0  0  0
    6.2907    2.8940   -0.0155 C   0  0  0  0  0  0  0  0  0  0  0  0
    6.7272    4.2273   -0.0236 C   0  0  0  0  0  0  0  0  0  0  0  0
    8.0911    4.5174    0.0713 C   0  0  0  0  0  0  0  0  0  0  0  0
    9.0212    3.4836    0.1657 C   0  0  0  0  0  0  0  0  0  0  0  0
    8.5844    2.1644    0.1656 C   0  0  0  0  0  0  0  0  0  0  0  0
    9.4820    1.1748    0.2557 F   0  0  0  0  0  0  0  0  0  0  0  0
    7.2333    1.8576    0.0771 C   0  0  0  0  0  0  0  0  0  0  0  0
    3.8418    3.4317   -0.2131 C   0  0  0  0  0  0  0  0  0  0  0  0
    2.7160    2.6594   -0.1303 C   0  0  0  0  0  0  0  0  0  0  0  0
    1.4618    3.1305   -0.1969 O   0  0  0  0  0  0  0  0  0  0  0  0
    4.0960   -0.9794    0.3468 H   0  0  0  0  0  0  0  0  0  0  0  0
    1.8807   -2.3499   -0.4209 H   0  0  0  0  0  0  0  0  0  0  0  0
    1.7201   -2.2452    1.3642 H   0  0  0  0  0  0  0  0  0  0  0  0
    6.5813   -3.9904    0.6204 H   0  0  0  0  0  0  0  0  0  0  0  0
    5.8591   -6.3356    1.0746 H   0  0  0  0  0  0  0  0  0  0  0  0
    3.4521   -6.8360    1.2056 H   0  0  0  0  0  0  0  0  0  0  0  0
    1.6147   -6.5800    2.6091 H   0  0  0  0  0  0  0  0  0  0  0  0
   -0.7694   -6.9902    2.9729 H   0  0  0  0  0  0  0  0  0  0  0  0
   -2.4783   -5.6853    1.7326 H   0  0  0  0  0  0  0  0  0  0  0  0
   -1.7562   -4.0860   -0.0206 H   0  0  0  0  0  0  0  0  0  0  0  0
    0.5864   -3.8281   -0.5609 H   0  0  0  0  0  0  0  0  0  0  0  0
    6.0357    5.0616   -0.0841 H   0  0  0  0  0  0  0  0  0  0  0  0
    8.4263    5.5508    0.0780 H   0  0  0  0  0  0  0  0  0  0  0  0
   10.0827    3.6948    0.2423 H   0  0  0  0  0  0  0  0  0  0  0  0
    6.9359    0.8112    0.0868 H   0  0  0  0  0  0  0  0  0  0  0  0
    3.9661    4.4940   -0.3464 H   0  0  0  0  0  0  0  0  0  0  0  0
    1.4522    4.0866   -0.3356 H   0  0  0  0  0  0  0  0  0  0  0  0
  1  2  2  0  0  0  0
  2  3  1  0  0  0  0
  2 17  1  0  0  0  0
  3  4  1  0  0  0  0
  3 30  1  0  0  0  0
  4  5  1  0  0  0  0
  4 31  1  0  0  0  0
  4 32  1  0  0  0  0
  5  6  2  0  0  0  0
  5 10  1  0  0  0  0
  6  7  1  0  0  0  0
  7  8  2  0  0  0  0
  7 33  1  0  0  0  0
  8  9  1  0  0  0  0
  8 34  1  0  0  0  0
  9 10  2  0  0  0  0
  9 35  1  0  0  0  0
 10 11  1  0  0  0  0
 11 12  2  0  0  0  0
 11 16  1  0  0  0  0
 12 13  1  0  0  0  0
 12 36  1  0  0  0  0
 13 14  2  0  0  0  0
 13 37  1  0  0  0  0
 14 15  1  0  0  0  0
 14 38  1  0  0  0  0
 15 16  2  0  0  0  0
 15 39  1  0  0  0  0
 16 40  1  0  0  0  0
 17 18  2  0  0  0  0
 17 28  1  0  0  0  0
 18 19  1  0  0  0  0
 19 20  1  0  0  0  0
 19 27  1  0  0  0  0
 20 21  2  0  0  0  0
 20 26  1  0  0  0  0
 21 22  1  0  0  0  0
 21 41  1  0  0  0  0
 22 23  2  0  0  0  0
 22 42  1  0  0  0  0
 23 24  1  0  0  0  0
 23 43  1  0  0  0  0
 24 25  1  0  0  0  0
 24 26  2  0  0  0  0
 26 44  1  0  0  0  0
 27 28  2  0  0  0  0
 27 45  1  0  0  0  0
 28 29  1  0  0  0  0
 29 46  1  0  0  0  0
M  END
$$$$
