
 OpenBabel01122422463D

 46 49  0  0  0  0  0  0  0  0999 V2000
    0.7228    0.9265   -1.2083 O   0  0  0  0  0  0  0  0  0  0  0  0
    1.9324    0.7903   -1.4484 C   0  0  0  0  0  0  0  0  0  0  0  0
    2.8024    1.5293   -0.6297 N   0  0  0  0  0  0  0  0  0  0  0  0
    2.2029    2.3556    0.4592 C   0  0  0  0  0  0  0  0  0  0  0  0
    3.0267    3.3889    1.2400 C   0  0  0  0  0  0  0  0  0  0  0  0
    2.3370    4.4653    1.8573 C   0  0  0  0  0  0  0  0  0  0  0  0
    2.9849    5.4039    2.6872 C   0  0  0  0  0  0  0  0  0  0  0  0
    4.3498    5.3039    2.9243 C   0  0  0  0  0  0  0  0  0  0  0  0
    5.0454    4.2389    2.3654 C   0  0  0  0  0  0  0  0  0  0  0  0
    4.3782    3.2646    1.5821 C   0  0  0  0  0  0  0  0  0  0  0  0
    5.1341    2.1946    1.2116 O   0  0  0  0  0  0  0  0  0  0  0  0
    4.9965    1.0461    1.9647 C   0  0  0  0  0  0  0  0  0  0  0  0
    3.9886    0.8248    2.8986 C   0  0  0  0  0  0  0  0  0  0  0  0
    3.7847   -0.4692    3.3667 C   0  0  0  0  0  0  0  0  0  0  0  0
    4.6260   -1.4854    2.9437 C   0  0  0  0  0  0  0  0  0  0  0  0
    5.6647   -1.1573    2.0891 C   0  0  0  0  0  0  0  0  0  0  0  0
    5.8562    0.0772    1.5881 N   0  0  0  0  0  0  0  0  0  0  0  0
    2.2796   -0.1303   -2.6591 C   0  0  0  0  0  0  0  0  0  0  0  0
    1.0785   -0.3594   -3.4267 C   0  0  0  0  0  0  0  0  0  0  0  0
    1.0108   -1.0805   -4.6234 C   0  0  0  0  0  0  0  0  0  0  0  0
   -0.1656   -1.2305   -5.2530 F   0  0  0  0  0  0  0  0  0  0  0  0
    2.1297   -1.6219   -5.1729 C   0  0  0  0  0  0  0  0  0  0  0  0
    3.3157   -1.4645   -4.4689 C   0  0  0  0  0  0  0  0  0  0  0  0
    3.4316   -0.7562   -3.2123 C   0  0  0  0  0  0  0  0  0  0  0  0
    4.7612   -0.8493   -2.6968 N   0  0  0  0  0  0  0  0  0  0  0  0
    5.2792   -0.5733   -1.4588 C   0  0  0  0  0  0  0  0  0  0  0  0
    6.6423   -0.7803   -1.5141 C   0  0  0  0  0  0  0  0  0  0  0  0
    6.8648   -1.3343   -2.7709 C   0  0  0  0  0  0  0  0  0  0  0  0
    5.7431   -1.3997   -3.4803 N   0  0  0  0  0  0  0  0  0  0  0  0
    3.7833    1.3239   -0.5598 H   0  0  0  0  0  0  0  0  0  0  0  0
    1.7704    1.6571    1.1911 H   0  0  0  0  0  0  0  0  0  0  0  0
    1.3537    2.8934    0.0153 H   0  0  0  0  0  0  0  0  0  0  0  0
    1.2613    4.5724    1.7308 H   0  0  0  0  0  0  0  0  0  0  0  0
    2.4147    6.2039    3.1566 H   0  0  0  0  0  0  0  0  0  0  0  0
    4.8620    6.0267    3.5589 H   0  0  0  0  0  0  0  0  0  0  0  0
    6.1083    4.1283    2.5746 H   0  0  0  0  0  0  0  0  0  0  0  0
    3.3158    1.6069    3.2303 H   0  0  0  0  0  0  0  0  0  0  0  0
    2.9529   -0.6804    4.0341 H   0  0  0  0  0  0  0  0  0  0  0  0
    4.4783   -2.5075    3.2673 H   0  0  0  0  0  0  0  0  0  0  0  0
    6.3641   -1.9105    1.7430 H   0  0  0  0  0  0  0  0  0  0  0  0
    0.1186    0.0463   -3.1033 H   0  0  0  0  0  0  0  0  0  0  0  0
    2.1002   -2.1722   -6.1087 H   0  0  0  0  0  0  0  0  0  0  0  0
    4.1810   -1.9458   -4.9312 H   0  0  0  0  0  0  0  0  0  0  0  0
    4.6614   -0.3130   -0.6250 H   0  0  0  0  0  0  0  0  0  0  0  0
    7.3651   -0.6276   -0.7249 H   0  0  0  0  0  0  0  0  0  0  0  0
    7.7813   -1.7135   -3.2120 H   0  0  0  0  0  0  0  0  0  0  0  0
  1  2  2  0  0  0  0
  2  3  1  0  0  0  0
  2 18  1  0  0  0  0
  3  4  1  0  0  0  0
  3 30  1  0  0  0  0
  4  5  1  0  0  0  0
  4 31  1  0  0  0  0
  4 32  1  0  0  0  0
  5  6  2  0  0  0  0
  5 10  1  0  0  0  0
  6  7  1  0  0  0  0
  6 33  1  0  0  0  0
  7  8  2  0  0  0  0
  7 34  1  0  0  0  0
  8  9  1  0  0  0  0
  8 35  1  0  0  0  0
  9 10  2  0  0  0  0
  9 36  1  0  0  0  0
 10 11  1  0  0  0  0
 11 12  1  0  0  0  0
 12 13  2  0  0  0  0
 12 17  1  0  0  0  0
 13 14  1  0  0  0  0
 13 37  1  0  0  0  0
 14 15  2  0  0  0  0
 14 38  1  0  0  0  0
 15 16  1  0  0  0  0
 15 39  1  0  0  0  0
 16 17  2  0  0  0  0
 16 40  1  0  0  0  0
 18 19  2  0  0  0  0
 18 24  1  0  0  0  0
 19 20  1  0  0  0  0
 19 41  1  0  0  0  0
 20 21  1  0  0  0  0
 20 22  2  0  0  0  0
 22 23  1  0  0  0  0
 22 42  1  0  0  0  0
 23 24  2  0  0  0  0
 23 43  1  0  0  0  0
 24 25  1  0  0  0  0
 25 26  1  0  0  0  0
 25 29  1  0  0  0  0
 26 27  2  0  0  0  0
 26 44  1  0  0  0  0
 27 28  1  0  0  0  0
 27 45  1  0  0  0  0
 28 29  2  0  0  0  0
 28 46  1  0  0  0  0
M  END
$$$$
