
 OpenBabel01122422463D

 51 54  0  0  1  0  0  0  0  0999 V2000
    0.7903    0.1947   -0.8687 C   0  0  0  0  0  0  0  0  0  0  0  0
    2.1253    0.0024   -0.1702 C   0  0  3  0  0  0  0  0  0  0  0  0
    2.6666   -1.3069   -0.4666 N   0  0  0  0  0  0  0  0  0  0  0  0
    2.3270   -2.4352    0.2579 C   0  0  0  0  0  0  0  0  0  0  0  0
    1.5090   -2.4320    1.1689 O   0  0  0  0  0  0  0  0  0  0  0  0
    3.0643   -3.6908   -0.0917 C   0  0  0  0  0  0  0  0  0  0  0  0
    4.2817   -3.6196   -0.7723 C   0  0  0  0  0  0  0  0  0  0  0  0
    5.0584   -4.7581   -0.9278 C   0  0  0  0  0  0  0  0  0  0  0  0
    4.6232   -5.9692   -0.3914 C   0  0  0  0  0  0  0  0  0  0  0  0
    5.5794   -6.9979   -0.2767 N   0  0  0  0  0  0  0  0  0  0  0  0
    6.7685   -6.8193    0.4048 C   0  0  0  0  0  0  0  0  0  0  0  0
    7.5582   -7.9182    0.1830 C   0  0  0  0  0  0  0  0  0  0  0  0
    7.0559   -8.4803   -1.0148 C   0  0  0  0  0  0  0  0  0  0  0  0
    7.6218   -9.2573   -2.0364 C   0  0  0  0  0  0  0  0  0  0  0  0
    6.7987   -9.7131   -3.0671 C   0  0  0  0  0  0  0  0  0  0  0  0
    5.4197   -9.5136   -3.0117 C   0  0  0  0  0  0  0  0  0  0  0  0
    4.8425   -8.7003   -2.0294 C   0  0  0  0  0  0  0  0  0  0  0  0
    5.7138   -8.0966   -1.1124 C   0  0  0  0  0  0  0  0  0  0  0  0
    3.3811   -6.0847    0.2386 C   0  0  0  0  0  0  0  0  0  0  0  0
    2.6106   -4.9217    0.3874 C   0  0  0  0  0  0  0  0  0  0  0  0
    3.1315    1.0865   -0.4991 C   0  0  0  0  0  0  0  0  0  0  0  0
    3.6451    1.8847    0.5308 C   0  0  0  0  0  0  0  0  0  0  0  0
    4.5053    2.9522    0.2682 C   0  0  0  0  0  0  0  0  0  0  0  0
    4.8829    3.2312   -1.0420 C   0  0  0  0  0  0  0  0  0  0  0  0
    5.6866    4.3207   -1.2680 O   0  0  0  0  0  0  0  0  0  0  0  0
    4.4479    2.4163   -2.0979 C   0  0  0  0  0  0  0  0  0  0  0  0
    4.8695    2.5972   -3.5232 C   0  0  0  0  0  0  0  0  0  0  0  0
    5.7160    3.6273   -3.8177 N   0  0  0  0  0  0  0  0  0  0  0  0
    4.4889    1.8373   -4.4070 O   0  0  0  0  0  0  0  0  0  0  0  0
    3.5509    1.3570   -1.8112 C   0  0  0  0  0  0  0  0  0  0  0  0
    0.0647   -0.5632   -0.5489 H   0  0  0  0  0  0  0  0  0  0  0  0
    0.8874    0.1231   -1.9508 H   0  0  0  0  0  0  0  0  0  0  0  0
    0.3608    1.1656   -0.6552 H   0  0  0  0  0  0  0  0  0  0  0  0
    1.9223    0.0351    0.9127 H   0  0  0  0  0  0  0  0  0  0  0  0
    3.1451   -1.4148   -1.3492 H   0  0  0  0  0  0  0  0  0  0  0  0
    4.6972   -2.6794   -1.1188 H   0  0  0  0  0  0  0  0  0  0  0  0
    6.0302   -4.6780   -1.4136 H   0  0  0  0  0  0  0  0  0  0  0  0
    6.9423   -5.9279    0.9935 H   0  0  0  0  0  0  0  0  0  0  0  0
    8.4950   -8.1351    0.6763 H   0  0  0  0  0  0  0  0  0  0  0  0
    8.6954   -9.4194   -2.0678 H   0  0  0  0  0  0  0  0  0  0  0  0
    7.2406  -10.2341   -3.9122 H   0  0  0  0  0  0  0  0  0  0  0  0
    4.7873   -9.9561   -3.7775 H   0  0  0  0  0  0  0  0  0  0  0  0
    3.7763   -8.4995   -2.0238 H   0  0  0  0  0  0  0  0  0  0  0  0
    3.0576   -7.0272    0.6804 H   0  0  0  0  0  0  0  0  0  0  0  0
    1.6579   -4.9823    0.9555 H   0  0  0  0  0  0  0  0  0  0  0  0
    3.3552    1.6893    1.5687 H   0  0  0  0  0  0  0  0  0  0  0  0
    4.8534    3.5508    1.1017 H   0  0  0  0  0  0  0  0  0  0  0  0
    5.7801    4.8119   -0.4343 H   0  0  0  0  0  0  0  0  0  0  0  0
    6.0417    4.2573   -3.0910 H   0  0  0  0  0  0  0  0  0  0  0  0
    6.0174    3.7614   -4.7714 H   0  0  0  0  0  0  0  0  0  0  0  0
    3.2013    0.7443   -2.6379 H   0  0  0  0  0  0  0  0  0  0  0  0
  1  2  1  0  0  0  0
  1 31  1  0  0  0  0
  1 32  1  0  0  0  0
  1 33  1  0  0  0  0
  2  3  1  0  0  0  0
  2 21  1  0  0  0  0
  2 34  1  0  0  0  0
  3  4  1  0  0  0  0
  3 35  1  0  0  0  0
  4  5  2  0  0  0  0
  4  6  1  0  0  0  0
  6  7  2  0  0  0  0
  6 20  1  0  0  0  0
  7  8  1  0  0  0  0
  7 36  1  0  0  0  0
  8  9  2  0  0  0  0
  8 37  1  0  0  0  0
  9 10  1  0  0  0  0
  9 19  1  0  0  0  0
 10 11  1  0  0  0  0
 10 18  1  0  0  0  0
 11 12  2  0  0  0  0
 11 38  1  0  0  0  0
 12 13  1  0  0  0  0
 12 39  1  0  0  0  0
 13 14  2  0  0  0  0
 13 18  1  0  0  0  0
 14 15  1  0  0  0  0
 14 40  1  0  0  0  0
 15 16  2  0  0  0  0
 15 41  1  0  0  0  0
 16 17  1  0  0  0  0
 16 42  1  0  0  0  0
 17 18  2  0  0  0  0
 17 43  1  0  0  0  0
 19 20  2  0  0  0  0
 19 44  1  0  0  0  0
 20 45  1  0  0  0  0
 21 22  2  0  0  0  0
 21 30  1  0  0  0  0
 22 23  1  0  0  0  0
 22 46  1  0  0  0  0
 23 24  2  0  0  0  0
 23 47  1  0  0  0  0
 24 25  1  0  0  0  0
 24 26  1  0  0  0  0
 25 48  1  0  0  0  0
 26 27  1  0  0  0  0
 26 30  2  0  0  0  0
 27 28  1  0  0  0  0
 27 29  2  0  0  0  0
 28 49  1  0  0  0  0
 28 50  1  0  0  0  0
 30 51  1  0  0  0  0
M  END
$$$$
