
 OpenBabel01122422463D

 47 50  0  0  0  0  0  0  0  0999 V2000
    0.9478   -0.3139   -0.3636 O   0  0  0  0  0  0  0  0  0  0  0  0
    2.1323   -0.0847   -0.1423 C   0  0  0  0  0  0  0  0  0  0  0  0
    2.7828   -0.2589    1.0605 N   0  0  0  0  0  0  0  0  0  0  0  0
    2.1960   -0.7944    2.2271 C   0  0  0  0  0  0  0  0  0  0  0  0
    0.9804   -1.4828    2.2315 C   0  0  0  0  0  0  0  0  0  0  0  0
    0.4355   -1.9533    3.4261 C   0  0  0  0  0  0  0  0  0  0  0  0
    1.1110   -1.7595    4.6263 C   0  0  0  0  0  0  0  0  0  0  0  0
    0.4944   -2.2695    5.7329 O   0  0  0  0  0  0  0  0  0  0  0  0
    1.3716   -2.5836    6.8165 C   0  0  0  0  0  0  0  0  0  0  0  0
    0.7524   -3.6017    7.7339 C   0  0  0  0  0  0  0  0  0  0  0  0
   -0.1562   -4.5462    7.2641 C   0  0  0  0  0  0  0  0  0  0  0  0
   -0.6713   -5.5245    8.0459 N   0  0  0  0  0  0  0  0  0  0  0  0
   -0.2345   -5.5288    9.3234 C   0  0  0  0  0  0  0  0  0  0  0  0
    0.6769   -4.6035    9.7996 C   0  0  0  0  0  0  0  0  0  0  0  0
    1.1930   -3.6274    9.0210 N   0  0  0  0  0  0  0  0  0  0  0  0
    2.3247   -1.0716    4.6322 C   0  0  0  0  0  0  0  0  0  0  0  0
    2.8748   -0.6095    3.4344 C   0  0  0  0  0  0  0  0  0  0  0  0
    2.9596    0.4998   -1.2152 C   0  0  0  0  0  0  0  0  0  0  0  0
    2.3427    1.2447   -2.1341 C   0  0  0  0  0  0  0  0  0  0  0  0
    3.0680    1.8316   -3.2702 C   0  0  0  0  0  0  0  0  0  0  0  0
    2.3992    2.4831   -4.0681 O   0  0  0  0  0  0  0  0  0  0  0  0
    4.4393    1.5507   -3.3322 N   0  0  0  0  0  0  0  0  0  0  0  0
    5.2927    2.0720   -4.3573 C   0  0  0  0  0  0  0  0  0  0  0  0
    4.9628    3.2303   -5.0761 C   0  0  0  0  0  0  0  0  0  0  0  0
    5.8099    3.7345   -6.0657 C   0  0  0  0  0  0  0  0  0  0  0  0
    6.9996    3.0796   -6.3660 C   0  0  0  0  0  0  0  0  0  0  0  0
    7.3470    1.9264   -5.6682 C   0  0  0  0  0  0  0  0  0  0  0  0
    6.5073    1.4349   -4.6640 C   0  0  0  0  0  0  0  0  0  0  0  0
    5.0918    0.7486   -2.4053 N   0  0  0  0  0  0  0  0  0  0  0  0
    4.3910    0.2791   -1.4264 C   0  0  0  0  0  0  0  0  0  0  0  0
    3.7007    0.1488    1.1816 H   0  0  0  0  0  0  0  0  0  0  0  0
    0.4279   -1.6849    1.3192 H   0  0  0  0  0  0  0  0  0  0  0  0
   -0.5151   -2.4804    3.4088 H   0  0  0  0  0  0  0  0  0  0  0  0
    1.5775   -1.6669    7.3817 H   0  0  0  0  0  0  0  0  0  0  0  0
    2.3118   -3.0171    6.4520 H   0  0  0  0  0  0  0  0  0  0  0  0
   -0.4948   -4.5502    6.2326 H   0  0  0  0  0  0  0  0  0  0  0  0
   -0.6375   -6.3071    9.9606 H   0  0  0  0  0  0  0  0  0  0  0  0
    1.0243   -4.6257   10.8257 H   0  0  0  0  0  0  0  0  0  0  0  0
    2.8572   -0.8674    5.5554 H   0  0  0  0  0  0  0  0  0  0  0  0
    3.8226   -0.0796    3.4724 H   0  0  0  0  0  0  0  0  0  0  0  0
    1.2773    1.4508   -2.1028 H   0  0  0  0  0  0  0  0  0  0  0  0
    4.0585    3.7929   -4.8616 H   0  0  0  0  0  0  0  0  0  0  0  0
    5.5341    4.6428   -6.5949 H   0  0  0  0  0  0  0  0  0  0  0  0
    7.6532    3.4692   -7.1403 H   0  0  0  0  0  0  0  0  0  0  0  0
    8.2699    1.4045   -5.9058 H   0  0  0  0  0  0  0  0  0  0  0  0
    6.7978    0.5237   -4.1465 H   0  0  0  0  0  0  0  0  0  0  0  0
    4.9023   -0.3550   -0.6837 H   0  0  0  0  0  0  0  0  0  0  0  0
  1  2  2  0  0  0  0
  2  3  1  0  0  0  0
  2 18  1  0  0  0  0
  3  4  1  0  0  0  0
  3 31  1  0  0  0  0
  4  5  2  0  0  0  0
  4 17  1  0  0  0  0
  5  6  1  0  0  0  0
  5 32  1  0  0  0  0
  6  7  2  0  0  0  0
  6 33  1  0  0  0  0
  7  8  1  0  0  0  0
  7 16  1  0  0  0  0
  8  9  1  0  0  0  0
  9 10  1  0  0  0  0
  9 34  1  0  0  0  0
  9 35  1  0  0  0  0
 10 11  2  0  0  0  0
 10 15  1  0  0  0  0
 11 12  1  0  0  0  0
 11 36  1  0  0  0  0
 12 13  2  0  0  0  0
 13 14  1  0  0  0  0
 13 37  1  0  0  0  0
 14 15  2  0  0  0  0
 14 38  1  0  0  0  0
 16 17  2  0  0  0  0
 16 39  1  0  0  0  0
 17 40  1  0  0  0  0
 18 19  2  0  0  0  0
 18 30  1  0  0  0  0
 19 20  1  0  0  0  0
 19 41  1  0  0  0  0
 20 21  2  0  0  0  0
 20 22  1  0  0  0  0
 22 23  1  0  0  0  0
 22 29  1  0  0  0  0
 23 24  2  0  0  0  0
 23 28  1  0  0  0  0
 24 25  1  0  0  0  0
 24 42  1  0  0  0  0
 25 26  2  0  0  0  0
 25 43  1  0  0  0  0
 26 27  1  0  0  0  0
 26 44  1  0  0  0  0
 27 28  2  0  0  0  0
 27 45  1  0  0  0  0
 28 46  1  0  0  0  0
 29 30  2  0  0  0  0
 30 47  1  0  0  0  0
M  END
$$$$
