
 OpenBabel01122422463D

 47 50  0  0  0  0  0  0  0  0999 V2000
    5.7718   -2.2515   -1.1674 N   0  0  0  0  0  0  0  0  0  0  0  0
    5.7740   -1.3563   -0.1137 C   0  0  0  0  0  0  0  0  0  0  0  0
    5.6606   -1.8397    1.1411 N   0  0  0  0  0  0  0  0  0  0  0  0
    5.6526   -0.9885    2.1906 N   0  0  0  0  0  0  0  0  0  0  0  0
    5.7569    0.3259    1.9324 C   0  0  0  0  0  0  0  0  0  0  0  0
    5.8486    0.8029    0.6372 C   0  0  0  0  0  0  0  0  0  0  0  0
    5.9767    2.2419    0.3189 C   0  0  0  0  0  0  0  0  0  0  0  0
    5.4354    3.2352    1.1605 C   0  0  0  0  0  0  0  0  0  0  0  0
    5.6254    4.5952    0.9047 C   0  0  0  0  0  0  0  0  0  0  0  0
    6.3451    4.9956   -0.2152 C   0  0  0  0  0  0  0  0  0  0  0  0
    6.8533    4.0397   -1.0992 C   0  0  0  0  0  0  0  0  0  0  0  0
    7.6003    4.5320   -2.2871 C   0  0  0  0  0  0  0  0  0  0  0  0
    8.2239    5.5846   -2.2197 O   0  0  0  0  0  0  0  0  0  0  0  0
    7.4993    3.7769   -3.4320 N   0  0  0  0  0  0  0  0  0  0  0  0
    8.1400    4.1797   -4.6626 C   0  0  0  0  0  0  0  0  0  0  0  0
    9.1400    3.1454   -5.0997 C   0  0  0  0  0  0  0  0  0  0  0  0
   10.4696    3.2145   -4.6708 C   0  0  0  0  0  0  0  0  0  0  0  0
   11.3963    2.2412   -5.0665 C   0  0  0  0  0  0  0  0  0  0  0  0
   11.0294    1.1648   -5.8976 C   0  0  0  0  0  0  0  0  0  0  0  0
   12.0288    0.1623   -6.3199 C   0  0  0  0  0  0  0  0  0  0  0  0
   11.9635   -0.5174   -7.5377 C   0  0  0  0  0  0  0  0  0  0  0  0
   12.9536   -1.4420   -7.8655 C   0  0  0  0  0  0  0  0  0  0  0  0
   13.9940   -1.6673   -6.9770 C   0  0  0  0  0  0  0  0  0  0  0  0
   14.0019   -0.9513   -5.7943 C   0  0  0  0  0  0  0  0  0  0  0  0
   13.0553   -0.0480   -5.4532 N   0  0  0  0  0  0  0  0  0  0  0  0
    9.6830    1.1043   -6.2873 C   0  0  0  0  0  0  0  0  0  0  0  0
    9.2317    0.0903   -7.0424 F   0  0  0  0  0  0  0  0  0  0  0  0
    8.7516    2.0705   -5.9025 C   0  0  0  0  0  0  0  0  0  0  0  0
    6.6746    2.6734   -0.8294 C   0  0  0  0  0  0  0  0  0  0  0  0
    5.8515   -0.0527   -0.4125 N   0  0  0  0  0  0  0  0  0  0  0  0
    5.3295   -3.1191   -0.8956 H   0  0  0  0  0  0  0  0  0  0  0  0
    5.4415   -1.8045   -2.0100 H   0  0  0  0  0  0  0  0  0  0  0  0
    5.7811    0.9634    2.8053 H   0  0  0  0  0  0  0  0  0  0  0  0
    4.8518    2.9672    2.0393 H   0  0  0  0  0  0  0  0  0  0  0  0
    5.2169    5.3417    1.5817 H   0  0  0  0  0  0  0  0  0  0  0  0
    6.5051    6.0557   -0.4047 H   0  0  0  0  0  0  0  0  0  0  0  0
    6.9081    2.9583   -3.4536 H   0  0  0  0  0  0  0  0  0  0  0  0
    8.6239    5.1576   -4.5620 H   0  0  0  0  0  0  0  0  0  0  0  0
    7.3554    4.2918   -5.4197 H   0  0  0  0  0  0  0  0  0  0  0  0
   10.7949    4.0273   -4.0220 H   0  0  0  0  0  0  0  0  0  0  0  0
   12.4257    2.3285   -4.7192 H   0  0  0  0  0  0  0  0  0  0  0  0
   11.1599   -0.3323   -8.2429 H   0  0  0  0  0  0  0  0  0  0  0  0
   12.9085   -1.9773   -8.8096 H   0  0  0  0  0  0  0  0  0  0  0  0
   14.7795   -2.3794   -7.2013 H   0  0  0  0  0  0  0  0  0  0  0  0
   14.7946   -1.0869   -5.0642 H   0  0  0  0  0  0  0  0  0  0  0  0
    7.7243    1.9652   -6.2389 H   0  0  0  0  0  0  0  0  0  0  0  0
    7.1190    1.9291   -1.4882 H   0  0  0  0  0  0  0  0  0  0  0  0
  1  2  1  0  0  0  0
  1 31  1  0  0  0  0
  1 32  1  0  0  0  0
  2  3  2  0  0  0  0
  2 30  1  0  0  0  0
  3  4  1  0  0  0  0
  4  5  2  0  0  0  0
  5  6  1  0  0  0  0
  5 33  1  0  0  0  0
  6  7  1  0  0  0  0
  6 30  2  0  0  0  0
  7  8  2  0  0  0  0
  7 29  1  0  0  0  0
  8  9  1  0  0  0  0
  8 34  1  0  0  0  0
  9 10  2  0  0  0  0
  9 35  1  0  0  0  0
 10 11  1  0  0  0  0
 10 36  1  0  0  0  0
 11 12  1  0  0  0  0
 11 29  2  0  0  0  0
 12 13  2  0  0  0  0
 12 14  1  0  0  0  0
 14 15  1  0  0  0  0
 14 37  1  0  0  0  0
 15 16  1  0  0  0  0
 15 38  1  0  0  0  0
 15 39  1  0  0  0  0
 16 17  2  0  0  0  0
 16 28  1  0  0  0  0
 17 18  1  0  0  0  0
 17 40  1  0  0  0  0
 18 19  2  0  0  0  0
 18 41  1  0  0  0  0
 19 20  1  0  0  0  0
 19 26  1  0  0  0  0
 20 21  2  0  0  0  0
 20 25  1  0  0  0  0
 21 22  1  0  0  0  0
 21 42  1  0  0  0  0
 22 23  2  0  0  0  0
 22 43  1  0  0  0  0
 23 24  1  0  0  0  0
 23 44  1  0  0  0  0
 24 25  2  0  0  0  0
 24 45  1  0  0  0  0
 26 27  1  0  0  0  0
 26 28  2  0  0  0  0
 28 46  1  0  0  0  0
 29 47  1  0  0  0  0
M  END
$$$$
