
 OpenBabel01122422463D

 46 49  0  0  0  0  0  0  0  0999 V2000
    1.1151   -0.6287   -0.3158 O   0  0  0  0  0  0  0  0  0  0  0  0
    2.2570   -0.2106   -0.1293 C   0  0  0  0  0  0  0  0  0  0  0  0
    2.8612    0.0123    1.0985 N   0  0  0  0  0  0  0  0  0  0  0  0
    2.2464   -0.2266    2.3493 C   0  0  0  0  0  0  0  0  0  0  0  0
    1.0744   -0.9774    2.4707 C   0  0  0  0  0  0  0  0  0  0  0  0
    0.4363   -1.1339    3.6993 C   0  0  0  0  0  0  0  0  0  0  0  0
    1.0098   -0.6170    4.8568 C   0  0  0  0  0  0  0  0  0  0  0  0
    0.4647   -0.7692    6.1146 O   0  0  0  0  0  0  0  0  0  0  0  0
   -0.2657   -1.9055    6.4006 C   0  0  0  0  0  0  0  0  0  0  0  0
    0.0503   -3.1760    5.9098 C   0  0  0  0  0  0  0  0  0  0  0  0
   -0.7712   -4.2687    6.1959 C   0  0  0  0  0  0  0  0  0  0  0  0
   -1.8847   -4.1202    7.0305 C   0  0  0  0  0  0  0  0  0  0  0  0
   -2.7885   -5.2899    7.3150 C   0  0  0  0  0  0  0  0  0  0  0  0
   -2.7583   -5.6219    8.6951 O   0  0  0  0  0  0  0  0  0  0  0  0
   -2.1502   -2.8596    7.5861 C   0  0  0  0  0  0  0  0  0  0  0  0
   -1.3478   -1.7574    7.2691 C   0  0  0  0  0  0  0  0  0  0  0  0
    2.1828    0.1356    4.7543 C   0  0  0  0  0  0  0  0  0  0  0  0
    2.8053    0.3235    3.5073 C   0  0  0  0  0  0  0  0  0  0  0  0
    3.0551    0.1473   -1.3375 C   0  0  0  0  0  0  0  0  0  0  0  0
    2.4099    0.1335   -2.5683 C   0  0  0  0  0  0  0  0  0  0  0  0
    3.1315    0.4743   -3.6984 C   0  0  0  0  0  0  0  0  0  0  0  0
    4.4825    0.8059   -3.5727 C   0  0  0  0  0  0  0  0  0  0  0  0
    5.2286    1.1521   -4.7071 C   0  0  0  0  0  0  0  0  0  0  0  0
    6.5710    1.4481   -4.5520 C   0  0  0  0  0  0  0  0  0  0  0  0
    7.2035    1.4112   -3.3664 N   0  0  0  0  0  0  0  0  0  0  0  0
    6.4410    1.0821   -2.2981 C   0  0  0  0  0  0  0  0  0  0  0  0
    7.1709    1.0430   -1.1475 O   0  0  0  0  0  0  0  0  0  0  0  0
    5.0778    0.7746   -2.2917 C   0  0  0  0  0  0  0  0  0  0  0  0
    4.3630    0.4650   -1.1700 N   0  0  0  0  0  0  0  0  0  0  0  0
    3.7710    0.4661    1.0726 H   0  0  0  0  0  0  0  0  0  0  0  0
    0.6213   -1.4765    1.6212 H   0  0  0  0  0  0  0  0  0  0  0  0
   -0.4994   -1.6849    3.7227 H   0  0  0  0  0  0  0  0  0  0  0  0
    0.9174   -3.3256    5.2722 H   0  0  0  0  0  0  0  0  0  0  0  0
   -0.5363   -5.2329    5.7505 H   0  0  0  0  0  0  0  0  0  0  0  0
   -2.4785   -6.1758    6.7505 H   0  0  0  0  0  0  0  0  0  0  0  0
   -3.8176   -5.0555    7.0243 H   0  0  0  0  0  0  0  0  0  0  0  0
   -1.8259   -5.5940    8.9703 H   0  0  0  0  0  0  0  0  0  0  0  0
   -2.9949   -2.7308    8.2611 H   0  0  0  0  0  0  0  0  0  0  0  0
   -1.5781   -0.7826    7.6911 H   0  0  0  0  0  0  0  0  0  0  0  0
    2.6136    0.5834    5.6464 H   0  0  0  0  0  0  0  0  0  0  0  0
    3.7102    0.9235    3.4585 H   0  0  0  0  0  0  0  0  0  0  0  0
    1.3599   -0.1337   -2.6446 H   0  0  0  0  0  0  0  0  0  0  0  0
    2.6338    0.4720   -4.6647 H   0  0  0  0  0  0  0  0  0  0  0  0
    4.7763    1.1906   -5.6935 H   0  0  0  0  0  0  0  0  0  0  0  0
    7.1799    1.7321   -5.4047 H   0  0  0  0  0  0  0  0  0  0  0  0
    8.0536    1.2418   -1.5065 H   0  0  0  0  0  0  0  0  0  0  0  0
  1  2  2  0  0  0  0
  2  3  1  0  0  0  0
  2 19  1  0  0  0  0
  3  4  1  0  0  0  0
  3 30  1  0  0  0  0
  4  5  2  0  0  0  0
  4 18  1  0  0  0  0
  5  6  1  0  0  0  0
  5 31  1  0  0  0  0
  6  7  2  0  0  0  0
  6 32  1  0  0  0  0
  7  8  1  0  0  0  0
  7 17  1  0  0  0  0
  8  9  1  0  0  0  0
  9 10  2  0  0  0  0
  9 16  1  0  0  0  0
 10 11  1  0  0  0  0
 10 33  1  0  0  0  0
 11 12  2  0  0  0  0
 11 34  1  0  0  0  0
 12 13  1  0  0  0  0
 12 15  1  0  0  0  0
 13 14  1  0  0  0  0
 13 35  1  0  0  0  0
 13 36  1  0  0  0  0
 14 37  1  0  0  0  0
 15 16  2  0  0  0  0
 15 38  1  0  0  0  0
 16 39  1  0  0  0  0
 17 18  2  0  0  0  0
 17 40  1  0  0  0  0
 18 41  1  0  0  0  0
 19 20  2  0  0  0  0
 19 29  1  0  0  0  0
 20 21  1  0  0  0  0
 20 42  1  0  0  0  0
 21 22  2  0  0  0  0
 21 43  1  0  0  0  0
 22 23  1  0  0  0  0
 22 28  1  0  0  0  0
 23 24  2  0  0  0  0
 23 44  1  0  0  0  0
 24 25  1  0  0  0  0
 24 45  1  0  0  0  0
 25 26  2  0  0  0  0
 26 27  1  0  0  0  0
 26 28  1  0  0  0  0
 27 46  1  0  0  0  0
 28 29  2  0  0  0  0
M  END
$$$$
