
 OpenBabel01122422463D

 55 58  0  0  0  0  0  0  0  0999 V2000
    3.4473   -0.5983   -3.1469 N   0  0  0  0  0  0  0  0  0  0  0  0
    2.7914    0.3357   -2.4051 C   0  0  0  0  0  0  0  0  0  0  0  0
    1.6355    0.6422   -2.6952 O   0  0  0  0  0  0  0  0  0  0  0  0
    3.4956    0.8869   -1.1563 C   0  0  0  0  0  0  0  0  0  0  0  0
    4.9342    0.5919   -0.9682 N   0  0  0  0  0  0  0  0  0  0  0  0
    5.3136   -0.1644    0.2286 C   0  0  0  0  0  0  0  0  0  0  0  0
    4.9369    0.4785    1.5513 C   0  0  0  0  0  0  0  0  0  0  0  0
    4.7467   -0.3426    2.6703 C   0  0  0  0  0  0  0  0  0  0  0  0
    4.3387    0.1909    3.9020 C   0  0  0  0  0  0  0  0  0  0  0  0
    4.1216    1.5678    4.0752 C   0  0  0  0  0  0  0  0  0  0  0  0
    3.6366    2.1290    5.3643 C   0  0  0  0  0  0  0  0  0  0  0  0
    3.9803    1.5526    6.6023 C   0  0  0  0  0  0  0  0  0  0  0  0
    3.5231    2.0856    7.8143 C   0  0  0  0  0  0  0  0  0  0  0  0
    2.7153    3.2174    7.8201 C   0  0  0  0  0  0  0  0  0  0  0  0
    2.3525    3.8060    6.6141 C   0  0  0  0  0  0  0  0  0  0  0  0
    2.8001    3.2620    5.4043 C   0  0  0  0  0  0  0  0  0  0  0  0
    4.3805    2.3877    2.9619 C   0  0  0  0  0  0  0  0  0  0  0  0
    4.7872    1.8583    1.7255 C   0  0  0  0  0  0  0  0  0  0  0  0
    5.8328    1.2939   -1.7595 C   0  0  0  0  0  0  0  0  0  0  0  0
    5.4237    2.0499   -2.6449 O   0  0  0  0  0  0  0  0  0  0  0  0
    7.3369    1.0906   -1.5474 C   0  0  0  0  0  0  0  0  0  0  0  0
    8.0896    1.9355   -2.5698 C   0  0  0  0  0  0  0  0  0  0  0  0
    9.5830    1.8973   -2.5569 C   0  0  0  0  0  0  0  0  0  0  0  0
   10.4326    1.2516   -1.7827 N   0  0  0  0  0  0  0  0  0  0  0  0
   11.6987    1.6838   -2.1686 C   0  0  0  0  0  0  0  0  0  0  0  0
   12.9908    1.3760   -1.6973 C   0  0  0  0  0  0  0  0  0  0  0  0
   13.1813    0.4859   -0.7129 F   0  0  0  0  0  0  0  0  0  0  0  0
   14.1055    2.0201   -2.2528 C   0  0  0  0  0  0  0  0  0  0  0  0
   13.9525    2.9523   -3.2814 C   0  0  0  0  0  0  0  0  0  0  0  0
   12.6926    3.2462   -3.7980 C   0  0  0  0  0  0  0  0  0  0  0  0
   11.5980    2.5977   -3.2123 C   0  0  0  0  0  0  0  0  0  0  0  0
   10.2604    2.6750   -3.4691 N   0  0  0  0  0  0  0  0  0  0  0  0
    2.9841   -0.9429   -3.9773 H   0  0  0  0  0  0  0  0  0  0  0  0
    4.3689   -0.9290   -2.9086 H   0  0  0  0  0  0  0  0  0  0  0  0
    2.9345    0.4964   -0.2997 H   0  0  0  0  0  0  0  0  0  0  0  0
    3.3743    1.9764   -1.1785 H   0  0  0  0  0  0  0  0  0  0  0  0
    6.3871   -0.3667    0.2417 H   0  0  0  0  0  0  0  0  0  0  0  0
    4.8024   -1.1311    0.1416 H   0  0  0  0  0  0  0  0  0  0  0  0
    4.8960   -1.4182    2.5943 H   0  0  0  0  0  0  0  0  0  0  0  0
    4.1698   -0.5021    4.7235 H   0  0  0  0  0  0  0  0  0  0  0  0
    4.6258    0.6786    6.6455 H   0  0  0  0  0  0  0  0  0  0  0  0
    3.8059    1.6162    8.7533 H   0  0  0  0  0  0  0  0  0  0  0  0
    2.3704    3.6391    8.7605 H   0  0  0  0  0  0  0  0  0  0  0  0
    1.7165    4.6877    6.6095 H   0  0  0  0  0  0  0  0  0  0  0  0
    2.4708    3.7376    4.4831 H   0  0  0  0  0  0  0  0  0  0  0  0
    4.2687    3.4676    3.0396 H   0  0  0  0  0  0  0  0  0  0  0  0
    4.9589    2.5481    0.9019 H   0  0  0  0  0  0  0  0  0  0  0  0
    7.5786    0.0287   -1.6795 H   0  0  0  0  0  0  0  0  0  0  0  0
    7.6063    1.3970   -0.5300 H   0  0  0  0  0  0  0  0  0  0  0  0
    7.7979    2.9856   -2.4311 H   0  0  0  0  0  0  0  0  0  0  0  0
    7.7611    1.6516   -3.5787 H   0  0  0  0  0  0  0  0  0  0  0  0
   15.0956    1.7925   -1.8689 H   0  0  0  0  0  0  0  0  0  0  0  0
   14.8265    3.4562   -3.6897 H   0  0  0  0  0  0  0  0  0  0  0  0
   12.5620    3.9683   -4.6001 H   0  0  0  0  0  0  0  0  0  0  0  0
    9.8271    3.2348   -4.1845 H   0  0  0  0  0  0  0  0  0  0  0  0
  1  2  1  0  0  0  0
  1 33  1  0  0  0  0
  1 34  1  0  0  0  0
  2  3  2  0  0  0  0
  2  4  1  0  0  0  0
  4  5  1  0  0  0  0
  4 35  1  0  0  0  0
  4 36  1  0  0  0  0
  5  6  1  0  0  0  0
  5 19  1  0  0  0  0
  6  7  1  0  0  0  0
  6 37  1  0  0  0  0
  6 38  1  0  0  0  0
  7  8  2  0  0  0  0
  7 18  1  0  0  0  0
  8  9  1  0  0  0  0
  8 39  1  0  0  0  0
  9 10  2  0  0  0  0
  9 40  1  0  0  0  0
 10 11  1  0  0  0  0
 10 17  1  0  0  0  0
 11 12  2  0  0  0  0
 11 16  1  0  0  0  0
 12 13  1  0  0  0  0
 12 41  1  0  0  0  0
 13 14  2  0  0  0  0
 13 42  1  0  0  0  0
 14 15  1  0  0  0  0
 14 43  1  0  0  0  0
 15 16  2  0  0  0  0
 15 44  1  0  0  0  0
 16 45  1  0  0  0  0
 17 18  2  0  0  0  0
 17 46  1  0  0  0  0
 18 47  1  0  0  0  0
 19 20  2  0  0  0  0
 19 21  1  0  0  0  0
 21 22  1  0  0  0  0
 21 48  1  0  0  0  0
 21 49  1  0  0  0  0
 22 23  1  0  0  0  0
 22 50  1  0  0  0  0
 22 51  1  0  0  0  0
 23 24  2  0  0  0  0
 23 32  1  0  0  0  0
 24 25  1  0  0  0  0
 25 26  2  0  0  0  0
 25 31  1  0  0  0  0
 26 27  1  0  0  0  0
 26 28  1  0  0  0  0
 28 29  2  0  0  0  0
 28 52  1  0  0  0  0
 29 30  1  0  0  0  0
 29 53  1  0  0  0  0
 30 31  2  0  0  0  0
 30 54  1  0  0  0  0
 31 32  1  0  0  0  0
 32 55  1  0  0  0  0
M  END
$$$$
