
 OpenBabel01122422463D

 53 55  0  0  0  0  0  0  0  0999 V2000
    3.0779   -2.6943   -1.8033 N   0  0  0  0  0  0  0  0  0  0  0  0
    2.3934   -1.6119   -1.3051 C   0  0  0  0  0  0  0  0  0  0  0  0
    1.2147   -1.7180   -0.9855 O   0  0  0  0  0  0  0  0  0  0  0  0
    3.1218   -0.2606   -1.3527 C   0  0  0  0  0  0  0  0  0  0  0  0
    4.5772   -0.3049   -1.1328 N   0  0  0  0  0  0  0  0  0  0  0  0
    5.0387   -0.1384    0.2556 C   0  0  0  0  0  0  0  0  0  0  0  0
    5.8058   -1.2957    0.8706 C   0  0  0  0  0  0  0  0  0  0  0  0
    6.4716   -2.2526    0.1028 C   0  0  0  0  0  0  0  0  0  0  0  0
    7.3625   -3.1634    0.6529 C   0  0  0  0  0  0  0  0  0  0  0  0
    7.4858   -3.2903    2.0328 C   0  0  0  0  0  0  0  0  0  0  0  0
    8.2461   -4.4292    2.5789 C   0  0  0  0  0  0  0  0  0  0  0  0
    9.4443   -4.8763    1.9874 C   0  0  0  0  0  0  0  0  0  0  0  0
   10.0752   -6.0426    2.4263 C   0  0  0  0  0  0  0  0  0  0  0  0
    9.5325   -6.7712    3.4786 C   0  0  0  0  0  0  0  0  0  0  0  0
    8.3568   -6.3430    4.0868 C   0  0  0  0  0  0  0  0  0  0  0  0
    7.7211   -5.1880    3.6344 C   0  0  0  0  0  0  0  0  0  0  0  0
    6.7620   -2.3873    2.8301 C   0  0  0  0  0  0  0  0  0  0  0  0
    5.9671   -1.3813    2.2574 C   0  0  0  0  0  0  0  0  0  0  0  0
    5.3933   -0.3880   -2.2602 C   0  0  0  0  0  0  0  0  0  0  0  0
    4.9077   -0.6778   -3.3596 O   0  0  0  0  0  0  0  0  0  0  0  0
    6.9062   -0.2441   -2.0967 C   0  0  0  0  0  0  0  0  0  0  0  0
    7.5879    0.7262   -3.0121 C   0  0  0  0  0  0  0  0  0  0  0  0
    7.6230    0.5177   -4.3916 C   0  0  0  0  0  0  0  0  0  0  0  0
    8.3851    1.3478   -5.1999 C   0  0  0  0  0  0  0  0  0  0  0  0
    9.1139    2.4006   -4.6399 C   0  0  0  0  0  0  0  0  0  0  0  0
    9.0589    2.6273   -3.2645 C   0  0  0  0  0  0  0  0  0  0  0  0
    9.7290    3.6158   -2.6037 O   0  0  0  0  0  0  0  0  0  0  0  0
    9.7946    4.8351   -3.3167 C   0  0  0  0  0  0  0  0  0  0  0  0
    9.8582    5.8336   -2.4002 F   0  0  0  0  0  0  0  0  0  0  0  0
   10.9584    4.8609   -4.0100 F   0  0  0  0  0  0  0  0  0  0  0  0
    8.3224    1.7783   -2.4520 C   0  0  0  0  0  0  0  0  0  0  0  0
    2.5160   -3.5278   -1.9313 H   0  0  0  0  0  0  0  0  0  0  0  0
    3.8025   -2.5130   -2.4880 H   0  0  0  0  0  0  0  0  0  0  0  0
    2.6721    0.4047   -0.6049 H   0  0  0  0  0  0  0  0  0  0  0  0
    2.9169    0.1844   -2.3329 H   0  0  0  0  0  0  0  0  0  0  0  0
    4.1667    0.0663    0.8885 H   0  0  0  0  0  0  0  0  0  0  0  0
    5.6642    0.7629    0.2844 H   0  0  0  0  0  0  0  0  0  0  0  0
    6.3200   -2.3386   -0.9618 H   0  0  0  0  0  0  0  0  0  0  0  0
    7.9063   -3.8172   -0.0253 H   0  0  0  0  0  0  0  0  0  0  0  0
    9.8865   -4.3354    1.1511 H   0  0  0  0  0  0  0  0  0  0  0  0
   10.9816   -6.3877    1.9339 H   0  0  0  0  0  0  0  0  0  0  0  0
   10.0204   -7.6805    3.8171 H   0  0  0  0  0  0  0  0  0  0  0  0
    7.9184   -6.9154    4.8998 H   0  0  0  0  0  0  0  0  0  0  0  0
    6.7690   -4.9068    4.0881 H   0  0  0  0  0  0  0  0  0  0  0  0
    6.8067   -2.4614    3.9158 H   0  0  0  0  0  0  0  0  0  0  0  0
    5.4461   -0.6839    2.9190 H   0  0  0  0  0  0  0  0  0  0  0  0
    7.3641   -1.2201   -2.3018 H   0  0  0  0  0  0  0  0  0  0  0  0
    7.1763    0.0152   -1.0726 H   0  0  0  0  0  0  0  0  0  0  0  0
    7.0833   -0.3215   -4.8327 H   0  0  0  0  0  0  0  0  0  0  0  0
    8.4358    1.1563   -6.2704 H   0  0  0  0  0  0  0  0  0  0  0  0
    9.7371    3.0051   -5.2897 H   0  0  0  0  0  0  0  0  0  0  0  0
    8.9432    5.0221   -3.9811 H   0  0  0  0  0  0  0  0  0  0  0  0
    8.3439    1.9239   -1.3724 H   0  0  0  0  0  0  0  0  0  0  0  0
  1  2  1  0  0  0  0
  1 32  1  0  0  0  0
  1 33  1  0  0  0  0
  2  3  2  0  0  0  0
  2  4  1  0  0  0  0
  4  5  1  0  0  0  0
  4 34  1  0  0  0  0
  4 35  1  0  0  0  0
  5  6  1  0  0  0  0
  5 19  1  0  0  0  0
  6  7  1  0  0  0  0
  6 36  1  0  0  0  0
  6 37  1  0  0  0  0
  7  8  2  0  0  0  0
  7 18  1  0  0  0  0
  8  9  1  0  0  0  0
  8 38  1  0  0  0  0
  9 10  2  0  0  0  0
  9 39  1  0  0  0  0
 10 11  1  0  0  0  0
 10 17  1  0  0  0  0
 11 12  2  0  0  0  0
 11 16  1  0  0  0  0
 12 13  1  0  0  0  0
 12 40  1  0  0  0  0
 13 14  2  0  0  0  0
 13 41  1  0  0  0  0
 14 15  1  0  0  0  0
 14 42  1  0  0  0  0
 15 16  2  0  0  0  0
 15 43  1  0  0  0  0
 16 44  1  0  0  0  0
 17 18  2  0  0  0  0
 17 45  1  0  0  0  0
 18 46  1  0  0  0  0
 19 20  2  0  0  0  0
 19 21  1  0  0  0  0
 21 22  1  0  0  0  0
 21 47  1  0  0  0  0
 21 48  1  0  0  0  0
 22 23  2  0  0  0  0
 22 31  1  0  0  0  0
 23 24  1  0  0  0  0
 23 49  1  0  0  0  0
 24 25  2  0  0  0  0
 24 50  1  0  0  0  0
 25 26  1  0  0  0  0
 25 51  1  0  0  0  0
 26 27  1  0  0  0  0
 26 31  2  0  0  0  0
 27 28  1  0  0  0  0
 28 29  1  0  0  0  0
 28 30  1  0  0  0  0
 28 52  1  0  0  0  0
 31 53  1  0  0  0  0
M  END
$$$$
