
 OpenBabel01122422463D

 43 46  0  0  0  0  0  0  0  0999 V2000
    0.9878   -0.0245    0.0722 O   0  0  0  0  0  0  0  0  0  0  0  0
    2.2177   -0.0527    0.0137 C   0  0  0  0  0  0  0  0  0  0  0  0
    2.9134   -1.1733   -0.7486 C   0  0  0  0  0  0  0  0  0  0  0  0
    4.1921   -0.7671   -1.4059 C   0  0  0  0  0  0  0  0  0  0  0  0
    5.2185   -0.3194   -0.6699 N   0  0  0  0  0  0  0  0  0  0  0  0
    6.1904   -0.0007   -1.5676 N   0  0  0  0  0  0  0  0  0  0  0  0
    7.4032    0.6052   -1.1350 C   0  0  0  0  0  0  0  0  0  0  0  0
    7.6512    0.7583    0.2408 C   0  0  0  0  0  0  0  0  0  0  0  0
    8.8148    1.3943    0.6794 C   0  0  0  0  0  0  0  0  0  0  0  0
    9.7250    1.8762   -0.2539 C   0  0  0  0  0  0  0  0  0  0  0  0
   10.8327    2.5009    0.1646 F   0  0  0  0  0  0  0  0  0  0  0  0
    9.5001    1.7232   -1.6167 C   0  0  0  0  0  0  0  0  0  0  0  0
    8.3413    1.0819   -2.0640 C   0  0  0  0  0  0  0  0  0  0  0  0
    5.7867   -0.2875   -2.8520 C   0  0  0  0  0  0  0  0  0  0  0  0
    4.5046   -0.7768   -2.7784 C   0  0  0  0  0  0  0  0  0  0  0  0
    3.0681    0.8405    0.6416 N   0  0  0  0  0  0  0  0  0  0  0  0
    2.6689    1.8993    1.4305 C   0  0  0  0  0  0  0  0  0  0  0  0
    1.4424    2.1158    2.0014 C   0  0  0  0  0  0  0  0  0  0  0  0
    1.4958    3.3290    2.6502 N   0  0  0  0  0  0  0  0  0  0  0  0
    0.4540    3.9587    3.3595 C   0  0  0  0  0  0  0  0  0  0  0  0
   -0.5321    3.2021    3.9951 C   0  0  0  0  0  0  0  0  0  0  0  0
   -0.4747    1.8631    4.0288 F   0  0  0  0  0  0  0  0  0  0  0  0
   -1.5789    3.8183    4.6810 C   0  0  0  0  0  0  0  0  0  0  0  0
   -1.6633    5.2081    4.7189 C   0  0  0  0  0  0  0  0  0  0  0  0
   -0.6852    5.9728    4.0848 C   0  0  0  0  0  0  0  0  0  0  0  0
    0.3751    5.3500    3.4227 C   0  0  0  0  0  0  0  0  0  0  0  0
    1.2506    6.1385    2.7833 F   0  0  0  0  0  0  0  0  0  0  0  0
    2.7252    3.8952    2.5335 N   0  0  0  0  0  0  0  0  0  0  0  0
    3.4365    3.0058    1.8376 C   0  0  0  0  0  0  0  0  0  0  0  0
    2.2144   -1.5308   -1.5154 H   0  0  0  0  0  0  0  0  0  0  0  0
    3.0908   -1.9975   -0.0495 H   0  0  0  0  0  0  0  0  0  0  0  0
    6.9504    0.3856    0.9862 H   0  0  0  0  0  0  0  0  0  0  0  0
    9.0142    1.5211    1.7389 H   0  0  0  0  0  0  0  0  0  0  0  0
   10.2254    2.1121   -2.3251 H   0  0  0  0  0  0  0  0  0  0  0  0
    8.1935    0.9931   -3.1356 H   0  0  0  0  0  0  0  0  0  0  0  0
    6.4239   -0.1245   -3.7068 H   0  0  0  0  0  0  0  0  0  0  0  0
    3.8802   -1.0884   -3.6048 H   0  0  0  0  0  0  0  0  0  0  0  0
    4.0590    0.7811    0.4043 H   0  0  0  0  0  0  0  0  0  0  0  0
    0.5312    1.5355    1.9671 H   0  0  0  0  0  0  0  0  0  0  0  0
   -2.3194    3.2042    5.1860 H   0  0  0  0  0  0  0  0  0  0  0  0
   -2.4860    5.6926    5.2385 H   0  0  0  0  0  0  0  0  0  0  0  0
   -0.7446    7.0577    4.0869 H   0  0  0  0  0  0  0  0  0  0  0  0
    4.4740    3.2244    1.6230 H   0  0  0  0  0  0  0  0  0  0  0  0
  1  2  2  0  0  0  0
  2  3  1  0  0  0  0
  2 16  1  0  0  0  0
  3  4  1  0  0  0  0
  3 30  1  0  0  0  0
  3 31  1  0  0  0  0
  4  5  2  0  0  0  0
  4 15  1  0  0  0  0
  5  6  1  0  0  0  0
  6  7  1  0  0  0  0
  6 14  1  0  0  0  0
  7  8  2  0  0  0  0
  7 13  1  0  0  0  0
  8  9  1  0  0  0  0
  8 32  1  0  0  0  0
  9 10  2  0  0  0  0
  9 33  1  0  0  0  0
 10 11  1  0  0  0  0
 10 12  1  0  0  0  0
 12 13  2  0  0  0  0
 12 34  1  0  0  0  0
 13 35  1  0  0  0  0
 14 15  2  0  0  0  0
 14 36  1  0  0  0  0
 15 37  1  0  0  0  0
 16 17  1  0  0  0  0
 16 38  1  0  0  0  0
 17 18  2  0  0  0  0
 17 29  1  0  0  0  0
 18 19  1  0  0  0  0
 18 39  1  0  0  0  0
 19 20  1  0  0  0  0
 19 28  1  0  0  0  0
 20 21  2  0  0  0  0
 20 26  1  0  0  0  0
 21 22  1  0  0  0  0
 21 23  1  0  0  0  0
 23 24  2  0  0  0  0
 23 40  1  0  0  0  0
 24 25  1  0  0  0  0
 24 41  1  0  0  0  0
 25 26  2  0  0  0  0
 25 42  1  0  0  0  0
 26 27  1  0  0  0  0
 28 29  2  0  0  0  0
 29 43  1  0  0  0  0
M  END
$$$$
