
 OpenBabel01122422463D

 49 52  0  0  0  0  0  0  0  0999 V2000
    3.0772   -2.5471    1.2596 N   0  0  0  0  0  0  0  0  0  0  0  0
    2.4661   -1.9978    0.1742 C   0  0  0  0  0  0  0  0  0  0  0  0
    1.2648   -2.1738   -0.0177 O   0  0  0  0  0  0  0  0  0  0  0  0
    3.3157   -1.0853   -0.7237 C   0  0  0  0  0  0  0  0  0  0  0  0
    4.7632   -1.0097   -0.4454 N   0  0  0  0  0  0  0  0  0  0  0  0
    5.2478    0.1605    0.2886 C   0  0  0  0  0  0  0  0  0  0  0  0
    5.3383   -0.0776    1.7750 C   0  0  0  0  0  0  0  0  0  0  0  0
    6.4968   -0.6213    2.3422 C   0  0  0  0  0  0  0  0  0  0  0  0
    6.5451   -0.9415    3.7054 C   0  0  0  0  0  0  0  0  0  0  0  0
    5.4411   -0.7302    4.5504 C   0  0  0  0  0  0  0  0  0  0  0  0
    5.4442   -1.1616    5.9721 C   0  0  0  0  0  0  0  0  0  0  0  0
    6.6149   -1.1702    6.7520 C   0  0  0  0  0  0  0  0  0  0  0  0
    6.6028   -1.5923    8.0868 C   0  0  0  0  0  0  0  0  0  0  0  0
    5.4143   -2.0079    8.6810 C   0  0  0  0  0  0  0  0  0  0  0  0
    4.2420   -2.0152    7.9339 C   0  0  0  0  0  0  0  0  0  0  0  0
    4.2614   -1.6067    6.5979 C   0  0  0  0  0  0  0  0  0  0  0  0
    4.3105   -0.1206    3.9755 C   0  0  0  0  0  0  0  0  0  0  0  0
    4.2541    0.1950    2.6123 C   0  0  0  0  0  0  0  0  0  0  0  0
    5.7084   -1.8724   -1.0117 C   0  0  0  0  0  0  0  0  0  0  0  0
    6.9189   -1.6712   -0.8960 O   0  0  0  0  0  0  0  0  0  0  0  0
    5.2373   -3.0392   -1.7814 C   0  0  0  0  0  0  0  0  0  0  0  0
    5.9552   -3.6956   -2.7667 C   0  0  0  0  0  0  0  0  0  0  0  0
    5.1459   -4.6994   -3.2275 N   0  0  0  0  0  0  0  0  0  0  0  0
    5.3753   -5.6397   -4.2308 C   0  0  0  0  0  0  0  0  0  0  0  0
    4.4098   -6.5336   -4.5189 C   0  0  0  0  0  0  0  0  0  0  0  0
    3.1644   -6.4806   -3.7734 C   0  0  0  0  0  0  0  0  0  0  0  0
    2.2101   -7.3803   -4.0879 F   0  0  0  0  0  0  0  0  0  0  0  0
    2.9465   -5.5751   -2.8049 C   0  0  0  0  0  0  0  0  0  0  0  0
    3.9666   -4.6318   -2.4945 C   0  0  0  0  0  0  0  0  0  0  0  0
    4.0100   -3.6552   -1.6152 N   0  0  0  0  0  0  0  0  0  0  0  0
    2.5517   -3.2113    1.8089 H   0  0  0  0  0  0  0  0  0  0  0  0
    4.0863   -2.5542    1.3317 H   0  0  0  0  0  0  0  0  0  0  0  0
    2.8925   -0.0779   -0.6401 H   0  0  0  0  0  0  0  0  0  0  0  0
    3.1679   -1.3924   -1.7630 H   0  0  0  0  0  0  0  0  0  0  0  0
    4.5948    1.0174    0.0804 H   0  0  0  0  0  0  0  0  0  0  0  0
    6.2345    0.4569   -0.0874 H   0  0  0  0  0  0  0  0  0  0  0  0
    7.3668   -0.8211    1.7192 H   0  0  0  0  0  0  0  0  0  0  0  0
    7.4556   -1.3944    4.0865 H   0  0  0  0  0  0  0  0  0  0  0  0
    7.5611   -0.8368    6.3320 H   0  0  0  0  0  0  0  0  0  0  0  0
    7.5243   -1.5917    8.6641 H   0  0  0  0  0  0  0  0  0  0  0  0
    5.4022   -2.3269    9.7187 H   0  0  0  0  0  0  0  0  0  0  0  0
    3.3089   -2.3442    8.3863 H   0  0  0  0  0  0  0  0  0  0  0  0
    3.3280   -1.6573    6.0413 H   0  0  0  0  0  0  0  0  0  0  0  0
    3.4380    0.1070    4.5836 H   0  0  0  0  0  0  0  0  0  0  0  0
    3.3410    0.6286    2.2114 H   0  0  0  0  0  0  0  0  0  0  0  0
    6.9416   -3.5150   -3.1702 H   0  0  0  0  0  0  0  0  0  0  0  0
    6.3278   -5.6089   -4.7419 H   0  0  0  0  0  0  0  0  0  0  0  0
    4.5227   -7.2908   -5.2855 H   0  0  0  0  0  0  0  0  0  0  0  0
    2.0108   -5.5418   -2.2601 H   0  0  0  0  0  0  0  0  0  0  0  0
  1  2  1  0  0  0  0
  1 31  1  0  0  0  0
  1 32  1  0  0  0  0
  2  3  2  0  0  0  0
  2  4  1  0  0  0  0
  4  5  1  0  0  0  0
  4 33  1  0  0  0  0
  4 34  1  0  0  0  0
  5  6  1  0  0  0  0
  5 19  1  0  0  0  0
  6  7  1  0  0  0  0
  6 35  1  0  0  0  0
  6 36  1  0  0  0  0
  7  8  2  0  0  0  0
  7 18  1  0  0  0  0
  8  9  1  0  0  0  0
  8 37  1  0  0  0  0
  9 10  2  0  0  0  0
  9 38  1  0  0  0  0
 10 11  1  0  0  0  0
 10 17  1  0  0  0  0
 11 12  2  0  0  0  0
 11 16  1  0  0  0  0
 12 13  1  0  0  0  0
 12 39  1  0  0  0  0
 13 14  2  0  0  0  0
 13 40  1  0  0  0  0
 14 15  1  0  0  0  0
 14 41  1  0  0  0  0
 15 16  2  0  0  0  0
 15 42  1  0  0  0  0
 16 43  1  0  0  0  0
 17 18  2  0  0  0  0
 17 44  1  0  0  0  0
 18 45  1  0  0  0  0
 19 20  2  0  0  0  0
 19 21  1  0  0  0  0
 21 22  2  0  0  0  0
 21 30  1  0  0  0  0
 22 23  1  0  0  0  0
 22 46  1  0  0  0  0
 23 24  1  0  0  0  0
 23 29  1  0  0  0  0
 24 25  2  0  0  0  0
 24 47  1  0  0  0  0
 25 26  1  0  0  0  0
 25 48  1  0  0  0  0
 26 27  1  0  0  0  0
 26 28  2  0  0  0  0
 28 29  1  0  0  0  0
 28 49  1  0  0  0  0
 29 30  2  0  0  0  0
M  END
$$$$
