
 OpenBabel01122422473D

 46 49  0  0  0  0  0  0  0  0999 V2000
   -0.5804   -0.3124   -2.5095 N   0  0  0  0  0  0  0  0  0  0  0  0
   -0.3944   -1.1124   -3.4662 C   0  0  0  0  0  0  0  0  0  0  0  0
   -0.1702   -2.0768   -4.6195 C   0  0  0  0  0  0  0  0  0  0  0  0
    1.2345   -2.6119   -4.5376 C   0  0  0  0  0  0  0  0  0  0  0  0
    1.5285   -3.7821   -3.8195 C   0  0  0  0  0  0  0  0  0  0  0  0
    2.8514   -4.2084   -3.6781 C   0  0  0  0  0  0  0  0  0  0  0  0
    3.8841   -3.4643   -4.2463 C   0  0  0  0  0  0  0  0  0  0  0  0
    5.1632   -3.9653   -4.1123 O   0  0  0  0  0  0  0  0  0  0  0  0
    6.0534   -3.6868   -5.1258 C   0  0  0  0  0  0  0  0  0  0  0  0
    7.3325   -3.2830   -4.7637 C   0  0  0  0  0  0  0  0  0  0  0  0
    8.2410   -2.8900   -5.7520 C   0  0  0  0  0  0  0  0  0  0  0  0
    7.8819   -2.8981   -7.1044 C   0  0  0  0  0  0  0  0  0  0  0  0
    8.7255   -2.4558   -8.1527 N   0  0  0  0  0  0  0  0  0  0  0  0
   10.0155   -1.9812   -8.0154 C   0  0  0  0  0  0  0  0  0  0  0  0
   10.6464   -1.9008   -6.9654 O   0  0  0  0  0  0  0  0  0  0  0  0
   10.7115   -1.5595   -9.2536 C   0  0  0  0  0  0  0  0  0  0  0  0
   10.0794   -1.0711  -10.3969 C   0  0  0  0  0  0  0  0  0  0  0  0
   10.8628   -0.6545  -11.4820 C   0  0  0  0  0  0  0  0  0  0  0  0
   12.2536   -0.7392  -11.3957 C   0  0  0  0  0  0  0  0  0  0  0  0
   13.1041   -0.2944  -12.5093 C   0  0  0  0  0  0  0  0  0  0  0  0
   14.4504   -0.3165  -12.4986 N   0  0  0  0  0  0  0  0  0  0  0  0
   14.7568    0.1798  -13.7004 N   0  0  0  0  0  0  0  0  0  0  0  0
   13.6403    0.4835  -14.4074 C   0  0  0  0  0  0  0  0  0  0  0  0
   12.5780    0.1999  -13.6925 N   0  0  0  0  0  0  0  0  0  0  0  0
   12.8777   -1.2174  -10.2892 N   0  0  0  0  0  0  0  0  0  0  0  0
   12.1010   -1.6027   -9.2506 C   0  0  0  0  0  0  0  0  0  0  0  0
    6.6104   -3.3612   -7.4593 C   0  0  0  0  0  0  0  0  0  0  0  0
    5.7122   -3.7833   -6.4779 C   0  0  0  0  0  0  0  0  0  0  0  0
    3.5980   -2.2605   -4.8990 C   0  0  0  0  0  0  0  0  0  0  0  0
    2.2810   -1.8540   -5.0745 C   0  0  0  0  0  0  0  0  0  0  0  0
   -0.3316   -1.5607   -5.5727 H   0  0  0  0  0  0  0  0  0  0  0  0
   -0.8991   -2.8932   -4.5663 H   0  0  0  0  0  0  0  0  0  0  0  0
    0.7353   -4.3610   -3.3495 H   0  0  0  0  0  0  0  0  0  0  0  0
    3.0758   -5.1158   -3.1231 H   0  0  0  0  0  0  0  0  0  0  0  0
    7.6217   -3.2404   -3.7169 H   0  0  0  0  0  0  0  0  0  0  0  0
    9.2210   -2.5645   -5.4191 H   0  0  0  0  0  0  0  0  0  0  0  0
    8.3418   -2.5342   -9.0838 H   0  0  0  0  0  0  0  0  0  0  0  0
    9.0015   -0.9648  -10.4587 H   0  0  0  0  0  0  0  0  0  0  0  0
   10.3930   -0.2526  -12.3760 H   0  0  0  0  0  0  0  0  0  0  0  0
   15.7319    0.2778  -13.9602 H   0  0  0  0  0  0  0  0  0  0  0  0
   13.6621    0.8955  -15.4053 H   0  0  0  0  0  0  0  0  0  0  0  0
   12.6533   -1.9586   -8.3832 H   0  0  0  0  0  0  0  0  0  0  0  0
    6.2877   -3.3848   -8.4957 H   0  0  0  0  0  0  0  0  0  0  0  0
    4.7259   -4.1351   -6.7704 H   0  0  0  0  0  0  0  0  0  0  0  0
    4.3935   -1.6325   -5.2912 H   0  0  0  0  0  0  0  0  0  0  0  0
    2.0823   -0.9270   -5.6082 H   0  0  0  0  0  0  0  0  0  0  0  0
  1  2  3  0  0  0  0
  2  3  1  0  0  0  0
  3  4  1  0  0  0  0
  3 31  1  0  0  0  0
  3 32  1  0  0  0  0
  4  5  2  0  0  0  0
  4 30  1  0  0  0  0
  5  6  1  0  0  0  0
  5 33  1  0  0  0  0
  6  7  2  0  0  0  0
  6 34  1  0  0  0  0
  7  8  1  0  0  0  0
  7 29  1  0  0  0  0
  8  9  1  0  0  0  0
  9 10  2  0  0  0  0
  9 28  1  0  0  0  0
 10 11  1  0  0  0  0
 10 35  1  0  0  0  0
 11 12  2  0  0  0  0
 11 36  1  0  0  0  0
 12 13  1  0  0  0  0
 12 27  1  0  0  0  0
 13 14  1  0  0  0  0
 13 37  1  0  0  0  0
 14 15  2  0  0  0  0
 14 16  1  0  0  0  0
 16 17  2  0  0  0  0
 16 26  1  0  0  0  0
 17 18  1  0  0  0  0
 17 38  1  0  0  0  0
 18 19  2  0  0  0  0
 18 39  1  0  0  0  0
 19 20  1  0  0  0  0
 19 25  1  0  0  0  0
 20 21  2  0  0  0  0
 20 24  1  0  0  0  0
 21 22  1  0  0  0  0
 22 23  1  0  0  0  0
 22 40  1  0  0  0  0
 23 24  2  0  0  0  0
 23 41  1  0  0  0  0
 25 26  2  0  0  0  0
 26 42  1  0  0  0  0
 27 28  2  0  0  0  0
 27 43  1  0  0  0  0
 28 44  1  0  0  0  0
 29 30  2  0  0  0  0
 29 45  1  0  0  0  0
 30 46  1  0  0  0  0
M  END
$$$$
