
 OpenBabel01122422473D

 40 43  0  0  0  0  0  0  0  0999 V2000
    0.8730   -2.0750    0.3168 C   0  0  0  0  0  0  0  0  0  0  0  0
    2.3626   -2.1945    0.2465 C   0  0  0  0  0  0  0  0  0  0  0  0
    2.8981   -3.4147    0.4064 N   0  0  0  0  0  0  0  0  0  0  0  0
    4.2313   -3.4553    0.3434 C   0  0  0  0  0  0  0  0  0  0  0  0
    4.7353   -4.7049    0.5314 O   0  0  0  0  0  0  0  0  0  0  0  0
    5.0657   -2.3676    0.1338 C   0  0  0  0  0  0  0  0  0  0  0  0
    6.4741   -2.4419    0.0654 C   0  0  0  0  0  0  0  0  0  0  0  0
    7.2361   -1.2917   -0.1211 C   0  0  0  0  0  0  0  0  0  0  0  0
    8.6404   -1.2993   -0.2104 N   0  0  0  0  0  0  0  0  0  0  0  0
    9.4439   -2.4073   -0.4317 C   0  0  0  0  0  0  0  0  0  0  0  0
    9.0320   -3.5459   -0.6307 O   0  0  0  0  0  0  0  0  0  0  0  0
   10.8566   -2.1172   -0.4563 C   0  0  0  0  0  0  0  0  0  0  0  0
   11.9366   -2.9297   -0.6973 C   0  0  0  0  0  0  0  0  0  0  0  0
   13.0695   -2.0840   -0.5940 C   0  0  0  0  0  0  0  0  0  0  0  0
   14.4716   -2.4405   -0.7736 C   0  0  0  0  0  0  0  0  0  0  0  0
   14.8472   -3.4546   -1.6649 C   0  0  0  0  0  0  0  0  0  0  0  0
   13.9244   -4.1083   -2.3870 F   0  0  0  0  0  0  0  0  0  0  0  0
   16.1802   -3.8138   -1.8437 C   0  0  0  0  0  0  0  0  0  0  0  0
   17.1602   -3.1497   -1.1219 C   0  0  0  0  0  0  0  0  0  0  0  0
   18.4440   -3.4886   -1.2862 F   0  0  0  0  0  0  0  0  0  0  0  0
   16.8279   -2.1418   -0.2288 C   0  0  0  0  0  0  0  0  0  0  0  0
   15.4894   -1.7956   -0.0600 C   0  0  0  0  0  0  0  0  0  0  0  0
   15.2059   -0.8387    0.8360 F   0  0  0  0  0  0  0  0  0  0  0  0
   12.6796   -0.8310   -0.3047 N   0  0  0  0  0  0  0  0  0  0  0  0
   11.3028   -0.8565   -0.2173 O   0  0  0  0  0  0  0  0  0  0  0  0
    6.5763   -0.0659   -0.2138 C   0  0  0  0  0  0  0  0  0  0  0  0
    5.1750   -0.0110   -0.1729 C   0  0  0  0  0  0  0  0  0  0  0  0
    4.4010   -1.1525   -0.0025 C   0  0  0  0  0  0  0  0  0  0  0  0
    3.0640   -1.0602    0.0432 N   0  0  0  0  0  0  0  0  0  0  0  0
    0.4121   -3.0405    0.5487 H   0  0  0  0  0  0  0  0  0  0  0  0
    0.4813   -1.7230   -0.6414 H   0  0  0  0  0  0  0  0  0  0  0  0
    0.5961   -1.3625    1.0992 H   0  0  0  0  0  0  0  0  0  0  0  0
    3.9149   -5.2085    0.6713 H   0  0  0  0  0  0  0  0  0  0  0  0
    6.9364   -3.4178    0.1875 H   0  0  0  0  0  0  0  0  0  0  0  0
    9.1110   -0.4011   -0.1958 H   0  0  0  0  0  0  0  0  0  0  0  0
   11.8988   -3.9866   -0.9236 H   0  0  0  0  0  0  0  0  0  0  0  0
   16.4483   -4.6006   -2.5402 H   0  0  0  0  0  0  0  0  0  0  0  0
   17.5996   -1.6317    0.3371 H   0  0  0  0  0  0  0  0  0  0  0  0
    7.1293    0.8610   -0.3465 H   0  0  0  0  0  0  0  0  0  0  0  0
    4.6753    0.9501   -0.2759 H   0  0  0  0  0  0  0  0  0  0  0  0
  1  2  1  0  0  0  0
  1 30  1  0  0  0  0
  1 31  1  0  0  0  0
  1 32  1  0  0  0  0
  2  3  2  0  0  0  0
  2 29  1  0  0  0  0
  3  4  1  0  0  0  0
  4  5  1  0  0  0  0
  4  6  2  0  0  0  0
  5 33  1  0  0  0  0
  6  7  1  0  0  0  0
  6 28  1  0  0  0  0
  7  8  2  0  0  0  0
  7 34  1  0  0  0  0
  8  9  1  0  0  0  0
  8 26  1  0  0  0  0
  9 10  1  0  0  0  0
  9 35  1  0  0  0  0
 10 11  2  0  0  0  0
 10 12  1  0  0  0  0
 12 13  2  0  0  0  0
 12 25  1  0  0  0  0
 13 14  1  0  0  0  0
 13 36  1  0  0  0  0
 14 15  1  0  0  0  0
 14 24  2  0  0  0  0
 15 16  2  0  0  0  0
 15 22  1  0  0  0  0
 16 17  1  0  0  0  0
 16 18  1  0  0  0  0
 18 19  2  0  0  0  0
 18 37  1  0  0  0  0
 19 20  1  0  0  0  0
 19 21  1  0  0  0  0
 21 22  2  0  0  0  0
 21 38  1  0  0  0  0
 22 23  1  0  0  0  0
 24 25  1  0  0  0  0
 26 27  2  0  0  0  0
 26 39  1  0  0  0  0
 27 28  1  0  0  0  0
 27 40  1  0  0  0  0
 28 29  2  0  0  0  0
M  END
$$$$
