
 OpenBabel01122422473D

 45 48  0  0  0  0  0  0  0  0999 V2000
    0.8329    0.3969   -0.9730 C   0  0  0  0  0  0  0  0  0  0  0  0
    2.2766    0.3151   -1.0736 N   0  0  0  0  0  0  0  0  0  0  0  0
    2.9875    1.4738   -1.3461 C   0  0  0  0  0  0  0  0  0  0  0  0
    2.4786    2.5788   -1.5017 O   0  0  0  0  0  0  0  0  0  0  0  0
    4.3455    1.3489   -1.4324 N   0  0  0  0  0  0  0  0  0  0  0  0
    5.0324    0.1532   -1.2467 C   0  0  0  0  0  0  0  0  0  0  0  0
    6.4244    0.1310   -1.3192 C   0  0  0  0  0  0  0  0  0  0  0  0
    7.1337   -1.0569   -1.0609 C   0  0  0  0  0  0  0  0  0  0  0  0
    8.6160   -0.9479   -0.9246 C   0  0  0  0  0  0  0  0  0  0  0  0
    9.0990    0.1832   -0.8477 O   0  0  0  0  0  0  0  0  0  0  0  0
    9.3622   -2.1153   -0.8703 N   0  0  0  0  0  0  0  0  0  0  0  0
   10.7429   -2.0824   -0.5280 C   0  0  0  0  0  0  0  0  0  0  0  0
   11.1342   -1.3164    0.5872 C   0  0  0  0  0  0  0  0  0  0  0  0
   12.4590   -1.2896    1.0147 C   0  0  0  0  0  0  0  0  0  0  0  0
   13.4149   -2.0120    0.3117 C   0  0  0  0  0  0  0  0  0  0  0  0
   13.0472   -2.7682   -0.8114 C   0  0  0  0  0  0  0  0  0  0  0  0
   14.3296   -3.6073   -1.6223 Cl  0  0  0  0  0  0  0  0  0  0  0  0
   11.7028   -2.8340   -1.2405 C   0  0  0  0  0  0  0  0  0  0  0  0
   11.2152   -3.8748   -2.6293 S   0  0  0  0  0  0  0  0  0  0  0  0
   11.4139   -2.7635   -4.0163 C   0  0  0  0  0  0  0  0  0  0  0  0
   12.3735   -3.0097   -4.9948 C   0  0  0  0  0  0  0  0  0  0  0  0
   12.4248   -2.1709   -6.1169 C   0  0  0  0  0  0  0  0  0  0  0  0
   11.5165   -1.1277   -6.2220 C   0  0  0  0  0  0  0  0  0  0  0  0
   10.5929   -0.9615   -5.2056 C   0  0  0  0  0  0  0  0  0  0  0  0
   10.5167   -1.7589   -4.1130 N   0  0  0  0  0  0  0  0  0  0  0  0
    6.4225   -2.2327   -0.7858 C   0  0  0  0  0  0  0  0  0  0  0  0
    5.0226   -2.2059   -0.7315 C   0  0  0  0  0  0  0  0  0  0  0  0
    4.3327   -1.0054   -0.9445 C   0  0  0  0  0  0  0  0  0  0  0  0
    2.8622   -0.9231   -0.8123 C   0  0  0  0  0  0  0  0  0  0  0  0
    2.2331   -1.9210   -0.4701 O   0  0  0  0  0  0  0  0  0  0  0  0
    0.4448    1.3621   -1.3094 H   0  0  0  0  0  0  0  0  0  0  0  0
    0.5454    0.2387    0.0714 H   0  0  0  0  0  0  0  0  0  0  0  0
    0.3838   -0.3963   -1.5801 H   0  0  0  0  0  0  0  0  0  0  0  0
    4.8475    2.2095   -1.6199 H   0  0  0  0  0  0  0  0  0  0  0  0
    6.9726    1.0479   -1.5287 H   0  0  0  0  0  0  0  0  0  0  0  0
    9.0617   -2.8847   -1.4587 H   0  0  0  0  0  0  0  0  0  0  0  0
   10.3965   -0.7516    1.1548 H   0  0  0  0  0  0  0  0  0  0  0  0
   12.7371   -0.7097    1.8908 H   0  0  0  0  0  0  0  0  0  0  0  0
   14.4505   -1.9867    0.6475 H   0  0  0  0  0  0  0  0  0  0  0  0
   13.0660   -3.8387   -4.9164 H   0  0  0  0  0  0  0  0  0  0  0  0
   13.1568   -2.3412   -6.9008 H   0  0  0  0  0  0  0  0  0  0  0  0
   11.5225   -0.4616   -7.0811 H   0  0  0  0  0  0  0  0  0  0  0  0
    9.8573   -0.1630   -5.2444 H   0  0  0  0  0  0  0  0  0  0  0  0
    6.9346   -3.1628   -0.5553 H   0  0  0  0  0  0  0  0  0  0  0  0
    4.4698   -3.1118   -0.4843 H   0  0  0  0  0  0  0  0  0  0  0  0
  1  2  1  0  0  0  0
  1 31  1  0  0  0  0
  1 32  1  0  0  0  0
  1 33  1  0  0  0  0
  2  3  1  0  0  0  0
  2 29  1  0  0  0  0
  3  4  2  0  0  0  0
  3  5  1  0  0  0  0
  5  6  1  0  0  0  0
  5 34  1  0  0  0  0
  6  7  2  0  0  0  0
  6 28  1  0  0  0  0
  7  8  1  0  0  0  0
  7 35  1  0  0  0  0
  8  9  1  0  0  0  0
  8 26  2  0  0  0  0
  9 10  2  0  0  0  0
  9 11  1  0  0  0  0
 11 12  1  0  0  0  0
 11 36  1  0  0  0  0
 12 13  2  0  0  0  0
 12 18  1  0  0  0  0
 13 14  1  0  0  0  0
 13 37  1  0  0  0  0
 14 15  2  0  0  0  0
 14 38  1  0  0  0  0
 15 16  1  0  0  0  0
 15 39  1  0  0  0  0
 16 17  1  0  0  0  0
 16 18  2  0  0  0  0
 18 19  1  0  0  0  0
 19 20  1  0  0  0  0
 20 21  2  0  0  0  0
 20 25  1  0  0  0  0
 21 22  1  0  0  0  0
 21 40  1  0  0  0  0
 22 23  2  0  0  0  0
 22 41  1  0  0  0  0
 23 24  1  0  0  0  0
 23 42  1  0  0  0  0
 24 25  2  0  0  0  0
 24 43  1  0  0  0  0
 26 27  1  0  0  0  0
 26 44  1  0  0  0  0
 27 28  2  0  0  0  0
 27 45  1  0  0  0  0
 28 29  1  0  0  0  0
 29 30  2  0  0  0  0
M  END
$$$$
