
 OpenBabel01122422453D

 43 46  0  0  0  0  0  0  0  0999 V2000
    0.9771   -0.0969    0.0097 N   0  0  0  0  0  0  0  0  0  0  0  0
    2.2381   -0.0969    0.0097 C   0  0  0  0  0  0  0  0  0  0  0  0
    3.7581   -0.0969    0.0097 C   0  0  0  0  0  0  0  0  0  0  0  0
    4.4392    1.0661    0.1899 C   0  0  0  0  0  0  0  0  0  0  0  0
    3.8078    2.3191    0.3260 N   0  0  0  0  0  0  0  0  0  0  0  0
    4.4169    3.5576    0.5284 C   0  0  0  0  0  0  0  0  0  0  0  0
    5.6281    3.7236    0.6424 O   0  0  0  0  0  0  0  0  0  0  0  0
    3.5856    4.7995    0.6003 C   0  0  0  0  0  0  0  0  0  0  0  0
    4.2722    5.9903    0.8516 C   0  0  0  0  0  0  0  0  0  0  0  0
    3.7092    7.2201    0.8919 N   0  0  0  0  0  0  0  0  0  0  0  0
    2.3817    7.2761    0.6634 C   0  0  0  0  0  0  0  0  0  0  0  0
    1.5785    6.1606    0.4237 C   0  0  0  0  0  0  0  0  0  0  0  0
    0.1525    6.3074    0.1754 C   0  0  0  0  0  0  0  0  0  0  0  0
   -0.6141    7.3763    0.6051 C   0  0  0  0  0  0  0  0  0  0  0  0
   -1.9032    7.2420    0.2035 O   0  0  0  0  0  0  0  0  0  0  0  0
   -1.9794    6.0783   -0.4893 C   0  0  0  0  0  0  0  0  0  0  0  0
   -0.7498    5.4650   -0.5346 C   0  0  0  0  0  0  0  0  0  0  0  0
    2.2038    4.8956    0.3971 C   0  0  0  0  0  0  0  0  0  0  0  0
    5.8859    0.9661    0.2778 C   0  0  0  0  0  0  0  0  0  0  0  0
    6.5150   -0.2108    0.2217 C   0  0  0  0  0  0  0  0  0  0  0  0
    5.8314   -1.4023    0.0889 N   0  0  0  0  0  0  0  0  0  0  0  0
    6.5429   -2.6354    0.0133 C   0  0  0  0  0  0  0  0  0  0  0  0
    7.6443   -2.7522   -0.8443 C   0  0  0  0  0  0  0  0  0  0  0  0
    8.2899   -3.9808   -0.9914 C   0  0  0  0  0  0  0  0  0  0  0  0
    7.8673   -5.0820   -0.2475 C   0  0  0  0  0  0  0  0  0  0  0  0
    6.8038   -4.9596    0.6436 C   0  0  0  0  0  0  0  0  0  0  0  0
    6.1361   -3.7421    0.7671 C   0  0  0  0  0  0  0  0  0  0  0  0
    4.4324   -1.4245   -0.0258 C   0  0  0  0  0  0  0  0  0  0  0  0
    3.7428   -2.4329   -0.1773 O   0  0  0  0  0  0  0  0  0  0  0  0
    2.7923    2.3156    0.2956 H   0  0  0  0  0  0  0  0  0  0  0  0
    5.3478    6.0004    1.0293 H   0  0  0  0  0  0  0  0  0  0  0  0
    1.9827    8.2880    0.6618 H   0  0  0  0  0  0  0  0  0  0  0  0
   -0.4105    8.2717    1.1779 H   0  0  0  0  0  0  0  0  0  0  0  0
   -2.9560    5.8323   -0.8822 H   0  0  0  0  0  0  0  0  0  0  0  0
   -0.5350    4.5333   -1.0358 H   0  0  0  0  0  0  0  0  0  0  0  0
    1.5999    4.0158    0.2119 H   0  0  0  0  0  0  0  0  0  0  0  0
    6.5126    1.8360    0.4184 H   0  0  0  0  0  0  0  0  0  0  0  0
    7.5966   -0.2568    0.3318 H   0  0  0  0  0  0  0  0  0  0  0  0
    7.9644   -1.9157   -1.4591 H   0  0  0  0  0  0  0  0  0  0  0  0
    9.1043   -4.0814   -1.7017 H   0  0  0  0  0  0  0  0  0  0  0  0
    8.3614   -6.0411   -0.3732 H   0  0  0  0  0  0  0  0  0  0  0  0
    6.4816   -5.8143    1.2323 H   0  0  0  0  0  0  0  0  0  0  0  0
    5.3075   -3.6638    1.4675 H   0  0  0  0  0  0  0  0  0  0  0  0
  1  2  3  0  0  0  0
  2  3  1  0  0  0  0
  3  4  2  0  0  0  0
  3 28  1  0  0  0  0
  4  5  1  0  0  0  0
  4 19  1  0  0  0  0
  5  6  1  0  0  0  0
  5 30  1  0  0  0  0
  6  7  2  0  0  0  0
  6  8  1  0  0  0  0
  8  9  2  0  0  0  0
  8 18  1  0  0  0  0
  9 10  1  0  0  0  0
  9 31  1  0  0  0  0
 10 11  2  0  0  0  0
 11 12  1  0  0  0  0
 11 32  1  0  0  0  0
 12 13  1  0  0  0  0
 12 18  2  0  0  0  0
 13 14  2  0  0  0  0
 13 17  1  0  0  0  0
 14 15  1  0  0  0  0
 14 33  1  0  0  0  0
 15 16  1  0  0  0  0
 16 17  2  0  0  0  0
 16 34  1  0  0  0  0
 17 35  1  0  0  0  0
 18 36  1  0  0  0  0
 19 20  2  0  0  0  0
 19 37  1  0  0  0  0
 20 21  1  0  0  0  0
 20 38  1  0  0  0  0
 21 22  1  0  0  0  0
 21 28  1  0  0  0  0
 22 23  2  0  0  0  0
 22 27  1  0  0  0  0
 23 24  1  0  0  0  0
 23 39  1  0  0  0  0
 24 25  2  0  0  0  0
 24 40  1  0  0  0  0
 25 26  1  0  0  0  0
 25 41  1  0  0  0  0
 26 27  2  0  0  0  0
 26 42  1  0  0  0  0
 27 43  1  0  0  0  0
 28 29  2  0  0  0  0
M  END
$$$$
