
 OpenBabel01122422473D

 52 55  0  0  0  0  0  0  0  0999 V2000
    6.6768    1.6356    0.7922 C   0  0  0  0  0  0  0  0  0  0  0  0
    6.2867    0.5922   -0.1000 O   0  0  0  0  0  0  0  0  0  0  0  0
    5.1752    0.8988   -0.8395 C   0  0  0  0  0  0  0  0  0  0  0  0
    4.8957    2.2330   -1.1478 C   0  0  0  0  0  0  0  0  0  0  0  0
    3.7876    2.5997   -1.9111 C   0  0  0  0  0  0  0  0  0  0  0  0
    3.4767    4.0424   -2.1660 C   0  0  0  0  0  0  0  0  0  0  0  0
    2.9786    1.5932   -2.4315 C   0  0  0  0  0  0  0  0  0  0  0  0
    3.2575    0.2530   -2.1497 C   0  0  0  0  0  0  0  0  0  0  0  0
    4.3367   -0.1252   -1.3332 C   0  0  0  0  0  0  0  0  0  0  0  0
    4.5006   -1.6162   -1.0669 C   0  0  0  0  0  0  0  0  0  0  0  0
    3.7844   -2.0986    0.1090 N   0  0  0  0  0  0  0  0  0  0  0  0
    2.4806   -2.5396   -0.0428 C   0  0  0  0  0  0  0  0  0  0  0  0
    1.9210   -2.7185   -1.1251 O   0  0  0  0  0  0  0  0  0  0  0  0
    1.7700   -2.7558    1.1076 N   0  0  0  0  0  0  0  0  0  0  0  0
    2.3173   -2.6308    2.3753 C   0  0  0  0  0  0  0  0  0  0  0  0
    1.5227   -2.7458    3.4941 C   0  0  0  0  0  0  0  0  0  0  0  0
    2.0536   -2.6558    4.7758 C   0  0  0  0  0  0  0  0  0  0  0  0
    1.2254   -2.7588    5.8750 O   0  0  0  0  0  0  0  0  0  0  0  0
    0.0464   -3.5807    5.6470 C   0  0  0  0  0  0  0  0  0  0  0  0
   -0.4787   -4.2126    6.9184 C   0  0  0  0  0  0  0  0  0  0  0  0
    0.1360   -4.0184    8.1615 C   0  0  0  0  0  0  0  0  0  0  0  0
   -0.3451   -4.6618    9.3049 C   0  0  0  0  0  0  0  0  0  0  0  0
   -1.4457   -5.5113    9.2200 C   0  0  0  0  0  0  0  0  0  0  0  0
   -2.0679   -5.7167    7.9911 C   0  0  0  0  0  0  0  0  0  0  0  0
   -1.5905   -5.0705    6.8481 C   0  0  0  0  0  0  0  0  0  0  0  0
    3.4409   -2.4343    4.9325 C   0  0  0  0  0  0  0  0  0  0  0  0
    4.2491   -2.3084    3.7897 C   0  0  0  0  0  0  0  0  0  0  0  0
    3.6958   -2.3818    2.5180 C   0  0  0  0  0  0  0  0  0  0  0  0
    4.4799   -2.1416    1.3131 C   0  0  0  0  0  0  0  0  0  0  0  0
    5.6904   -1.9815    1.4323 O   0  0  0  0  0  0  0  0  0  0  0  0
    7.4520    1.2570    1.4629 H   0  0  0  0  0  0  0  0  0  0  0  0
    5.8302    1.9708    1.4093 H   0  0  0  0  0  0  0  0  0  0  0  0
    7.1231    2.4983    0.2694 H   0  0  0  0  0  0  0  0  0  0  0  0
    5.5388    3.0359   -0.7969 H   0  0  0  0  0  0  0  0  0  0  0  0
    4.1931    4.6987   -1.6584 H   0  0  0  0  0  0  0  0  0  0  0  0
    2.4812    4.2813   -1.7812 H   0  0  0  0  0  0  0  0  0  0  0  0
    3.5207    4.2566   -3.2364 H   0  0  0  0  0  0  0  0  0  0  0  0
    2.1244    1.8376   -3.0527 H   0  0  0  0  0  0  0  0  0  0  0  0
    2.6083   -0.5125   -2.5772 H   0  0  0  0  0  0  0  0  0  0  0  0
    5.5635   -1.8547   -0.9891 H   0  0  0  0  0  0  0  0  0  0  0  0
    4.1190   -2.1668   -1.9360 H   0  0  0  0  0  0  0  0  0  0  0  0
    0.7887   -2.9681    0.9808 H   0  0  0  0  0  0  0  0  0  0  0  0
    0.4499   -2.9025    3.3797 H   0  0  0  0  0  0  0  0  0  0  0  0
    0.3180   -4.4104    4.9789 H   0  0  0  0  0  0  0  0  0  0  0  0
   -0.7637   -3.0138    5.1545 H   0  0  0  0  0  0  0  0  0  0  0  0
    1.0055   -3.3706    8.2548 H   0  0  0  0  0  0  0  0  0  0  0  0
    0.1443   -4.5022   10.2627 H   0  0  0  0  0  0  0  0  0  0  0  0
   -1.8159   -6.0138   10.1096 H   0  0  0  0  0  0  0  0  0  0  0  0
   -2.9235   -6.3840    7.9219 H   0  0  0  0  0  0  0  0  0  0  0  0
   -2.0864   -5.2518    5.8969 H   0  0  0  0  0  0  0  0  0  0  0  0
    3.9222   -2.3573    5.8987 H   0  0  0  0  0  0  0  0  0  0  0  0
    5.3228   -2.1307    3.8944 H   0  0  0  0  0  0  0  0  0  0  0  0
  1  2  1  0  0  0  0
  1 31  1  0  0  0  0
  1 32  1  0  0  0  0
  1 33  1  0  0  0  0
  2  3  1  0  0  0  0
  3  4  2  0  0  0  0
  3  9  1  0  0  0  0
  4  5  1  0  0  0  0
  4 34  1  0  0  0  0
  5  6  1  0  0  0  0
  5  7  2  0  0  0  0
  6 35  1  0  0  0  0
  6 36  1  0  0  0  0
  6 37  1  0  0  0  0
  7  8  1  0  0  0  0
  7 38  1  0  0  0  0
  8  9  2  0  0  0  0
  8 39  1  0  0  0  0
  9 10  1  0  0  0  0
 10 11  1  0  0  0  0
 10 40  1  0  0  0  0
 10 41  1  0  0  0  0
 11 12  1  0  0  0  0
 11 29  1  0  0  0  0
 12 13  2  0  0  0  0
 12 14  1  0  0  0  0
 14 15  1  0  0  0  0
 14 42  1  0  0  0  0
 15 16  2  0  0  0  0
 15 28  1  0  0  0  0
 16 17  1  0  0  0  0
 16 43  1  0  0  0  0
 17 18  1  0  0  0  0
 17 26  2  0  0  0  0
 18 19  1  0  0  0  0
 19 20  1  0  0  0  0
 19 44  1  0  0  0  0
 19 45  1  0  0  0  0
 20 21  2  0  0  0  0
 20 25  1  0  0  0  0
 21 22  1  0  0  0  0
 21 46  1  0  0  0  0
 22 23  2  0  0  0  0
 22 47  1  0  0  0  0
 23 24  1  0  0  0  0
 23 48  1  0  0  0  0
 24 25  2  0  0  0  0
 24 49  1  0  0  0  0
 25 50  1  0  0  0  0
 26 27  1  0  0  0  0
 26 51  1  0  0  0  0
 27 28  2  0  0  0  0
 27 52  1  0  0  0  0
 28 29  1  0  0  0  0
 29 30  2  0  0  0  0
M  END
$$$$
