
 OpenBabel01122422453D

 47 50  0  0  0  0  0  0  0  0999 V2000
    0.9823    0.1077   -0.2267 O   0  0  0  0  0  0  0  0  0  0  0  0
    2.1891    0.0188   -0.0191 C   0  0  0  0  0  0  0  0  0  0  0  0
    2.8657   -1.1349    0.3140 N   0  0  0  0  0  0  0  0  0  0  0  0
    2.1709   -2.3284    0.5144 C   0  0  0  0  0  0  0  0  0  0  0  0
    1.4578   -2.8995   -0.5400 C   0  0  0  0  0  0  0  0  0  0  0  0
    0.8284   -4.1368   -0.3556 C   0  0  0  0  0  0  0  0  0  0  0  0
    0.1623   -4.8498   -1.5108 C   0  0  0  0  0  0  0  0  0  0  0  0
    1.0848   -5.7935   -2.2573 C   0  0  0  0  0  0  0  0  0  0  0  0
    1.1840   -7.1422   -1.8821 C   0  0  0  0  0  0  0  0  0  0  0  0
    2.1035   -7.9920   -2.5051 C   0  0  0  0  0  0  0  0  0  0  0  0
    2.9197   -7.5103   -3.5257 C   0  0  0  0  0  0  0  0  0  0  0  0
    2.8042   -6.1845   -3.9371 C   0  0  0  0  0  0  0  0  0  0  0  0
    1.8950   -5.3296   -3.3051 C   0  0  0  0  0  0  0  0  0  0  0  0
    0.8695   -4.7039    0.9207 C   0  0  0  0  0  0  0  0  0  0  0  0
    1.5969   -4.0602    1.9148 C   0  0  0  0  0  0  0  0  0  0  0  0
    2.2966   -2.9164    1.7243 N   0  0  0  0  0  0  0  0  0  0  0  0
    3.0031    1.2642   -0.0695 C   0  0  0  0  0  0  0  0  0  0  0  0
    2.4052    2.4644    0.3286 C   0  0  0  0  0  0  0  0  0  0  0  0
    3.1034    3.6702    0.2123 C   0  0  0  0  0  0  0  0  0  0  0  0
    4.3920    3.6849   -0.3324 C   0  0  0  0  0  0  0  0  0  0  0  0
    5.1275    4.9637   -0.5400 C   0  0  0  0  0  0  0  0  0  0  0  0
    6.4256    4.9658   -0.4907 N   0  0  0  0  0  0  0  0  0  0  0  0
    7.0446    6.1744   -0.7034 N   0  0  0  0  0  0  0  0  0  0  0  0
    6.4216    7.3584   -0.9924 C   0  0  0  0  0  0  0  0  0  0  0  0
    7.0209    8.4115   -1.1951 O   0  0  0  0  0  0  0  0  0  0  0  0
    4.9431    7.3115   -1.0439 C   0  0  0  0  0  0  0  0  0  0  0  0
    4.3062    6.1629   -0.8285 C   0  0  0  0  0  0  0  0  0  0  0  0
    4.9955    2.4779   -0.7177 C   0  0  0  0  0  0  0  0  0  0  0  0
    4.3026    1.2681   -0.5869 C   0  0  0  0  0  0  0  0  0  0  0  0
    3.6795   -1.0279    0.9152 H   0  0  0  0  0  0  0  0  0  0  0  0
    1.4445   -2.4077   -1.5042 H   0  0  0  0  0  0  0  0  0  0  0  0
   -0.2526   -4.1110   -2.2104 H   0  0  0  0  0  0  0  0  0  0  0  0
   -0.7093   -5.4083   -1.1415 H   0  0  0  0  0  0  0  0  0  0  0  0
    0.5548   -7.5406   -1.0900 H   0  0  0  0  0  0  0  0  0  0  0  0
    2.1946   -9.0260   -2.1817 H   0  0  0  0  0  0  0  0  0  0  0  0
    3.6502   -8.1656   -3.9945 H   0  0  0  0  0  0  0  0  0  0  0  0
    3.4365   -5.8105   -4.7386 H   0  0  0  0  0  0  0  0  0  0  0  0
    1.8347   -4.2937   -3.6304 H   0  0  0  0  0  0  0  0  0  0  0  0
    0.3563   -5.6326    1.1405 H   0  0  0  0  0  0  0  0  0  0  0  0
    1.6309   -4.4614    2.9201 H   0  0  0  0  0  0  0  0  0  0  0  0
    1.3901    2.4749    0.7183 H   0  0  0  0  0  0  0  0  0  0  0  0
    2.6143    4.5798    0.5468 H   0  0  0  0  0  0  0  0  0  0  0  0
    8.0557    6.1755   -0.6734 H   0  0  0  0  0  0  0  0  0  0  0  0
    4.4322    8.2362   -1.2715 H   0  0  0  0  0  0  0  0  0  0  0  0
    3.2262    6.1074   -0.8965 H   0  0  0  0  0  0  0  0  0  0  0  0
    5.9924    2.4795   -1.1566 H   0  0  0  0  0  0  0  0  0  0  0  0
    4.7666    0.3504   -0.9415 H   0  0  0  0  0  0  0  0  0  0  0  0
  1  2  2  0  0  0  0
  2  3  1  0  0  0  0
  2 17  1  0  0  0  0
  3  4  1  0  0  0  0
  3 30  1  0  0  0  0
  4  5  2  0  0  0  0
  4 16  1  0  0  0  0
  5  6  1  0  0  0  0
  5 31  1  0  0  0  0
  6  7  1  0  0  0  0
  6 14  2  0  0  0  0
  7  8  1  0  0  0  0
  7 32  1  0  0  0  0
  7 33  1  0  0  0  0
  8  9  2  0  0  0  0
  8 13  1  0  0  0  0
  9 10  1  0  0  0  0
  9 34  1  0  0  0  0
 10 11  2  0  0  0  0
 10 35  1  0  0  0  0
 11 12  1  0  0  0  0
 11 36  1  0  0  0  0
 12 13  2  0  0  0  0
 12 37  1  0  0  0  0
 13 38  1  0  0  0  0
 14 15  1  0  0  0  0
 14 39  1  0  0  0  0
 15 16  2  0  0  0  0
 15 40  1  0  0  0  0
 17 18  2  0  0  0  0
 17 29  1  0  0  0  0
 18 19  1  0  0  0  0
 18 41  1  0  0  0  0
 19 20  2  0  0  0  0
 19 42  1  0  0  0  0
 20 21  1  0  0  0  0
 20 28  1  0  0  0  0
 21 22  2  0  0  0  0
 21 27  1  0  0  0  0
 22 23  1  0  0  0  0
 23 24  1  0  0  0  0
 23 43  1  0  0  0  0
 24 25  2  0  0  0  0
 24 26  1  0  0  0  0
 26 27  2  0  0  0  0
 26 44  1  0  0  0  0
 27 45  1  0  0  0  0
 28 29  2  0  0  0  0
 28 46  1  0  0  0  0
 29 47  1  0  0  0  0
M  END
$$$$
