
 OpenBabel01122422473D

 43 46  0  0  0  0  0  0  0  0999 V2000
    1.0910    0.1279   -0.3178 O   0  0  0  0  0  0  0  0  0  0  0  0
    2.2839    0.0466   -0.0513 C   0  0  0  0  0  0  0  0  0  0  0  0
    2.9574    0.9487    0.7412 N   0  0  0  0  0  0  0  0  0  0  0  0
    2.2877    2.1131    1.2761 C   0  0  0  0  0  0  0  0  0  0  0  0
    2.9303    2.5869    2.5460 C   0  0  0  0  0  0  0  0  0  0  0  0
    2.2236    2.5988    3.7629 C   0  0  0  0  0  0  0  0  0  0  0  0
    2.8180    3.0687    4.9552 C   0  0  0  0  0  0  0  0  0  0  0  0
    4.1320    3.5379    4.9642 C   0  0  0  0  0  0  0  0  0  0  0  0
    4.8001    3.5133    3.7633 C   0  0  0  0  0  0  0  0  0  0  0  0
    4.2317    3.0565    2.5898 C   0  0  0  0  0  0  0  0  0  0  0  0
    5.1107    3.1356    1.5184 O   0  0  0  0  0  0  0  0  0  0  0  0
    6.2566    3.6882    2.1064 C   0  0  0  0  0  0  0  0  0  0  0  0
    7.2827    3.9337    1.4943 O   0  0  0  0  0  0  0  0  0  0  0  0
    6.0677    3.9059    3.4500 N   0  0  0  0  0  0  0  0  0  0  0  0
    3.1038   -1.0601   -0.6189 C   0  0  0  0  0  0  0  0  0  0  0  0
    2.7130   -1.6279   -1.8394 C   0  0  0  0  0  0  0  0  0  0  0  0
    3.4540   -2.6737   -2.4080 C   0  0  0  0  0  0  0  0  0  0  0  0
    3.0885   -3.2299   -3.6735 N   0  0  0  0  0  0  0  0  0  0  0  0
    3.7032   -4.2909   -4.3153 C   0  0  0  0  0  0  0  0  0  0  0  0
    3.1061   -4.4955   -5.5391 C   0  0  0  0  0  0  0  0  0  0  0  0
    2.0768   -3.5460   -5.6624 C   0  0  0  0  0  0  0  0  0  0  0  0
    2.0739   -2.7948   -4.5073 C   0  0  0  0  0  0  0  0  0  0  0  0
    4.5925   -3.1420   -1.7327 C   0  0  0  0  0  0  0  0  0  0  0  0
    5.0091   -2.5639   -0.5219 C   0  0  0  0  0  0  0  0  0  0  0  0
    6.2977   -2.9937    0.1372 C   0  0  0  0  0  0  0  0  0  0  0  0
    6.9706   -3.9526   -0.5564 F   0  0  0  0  0  0  0  0  0  0  0  0
    7.1661   -1.9537    0.2730 F   0  0  0  0  0  0  0  0  0  0  0  0
    6.1091   -3.4924    1.3877 F   0  0  0  0  0  0  0  0  0  0  0  0
    4.2395   -1.5384    0.0445 C   0  0  0  0  0  0  0  0  0  0  0  0
    3.9647    1.0055    0.6584 H   0  0  0  0  0  0  0  0  0  0  0  0
    1.2303    1.8789    1.4416 H   0  0  0  0  0  0  0  0  0  0  0  0
    2.3288    2.9034    0.5179 H   0  0  0  0  0  0  0  0  0  0  0  0
    1.1937    2.2461    3.7974 H   0  0  0  0  0  0  0  0  0  0  0  0
    2.2382    3.0685    5.8763 H   0  0  0  0  0  0  0  0  0  0  0  0
    4.5938    3.9027    5.8737 H   0  0  0  0  0  0  0  0  0  0  0  0
    6.7650    4.3039    4.0574 H   0  0  0  0  0  0  0  0  0  0  0  0
    1.8268   -1.2230   -2.3237 H   0  0  0  0  0  0  0  0  0  0  0  0
    4.5225   -4.8346   -3.8695 H   0  0  0  0  0  0  0  0  0  0  0  0
    3.3900   -5.2531   -6.2594 H   0  0  0  0  0  0  0  0  0  0  0  0
    1.4042   -3.4161   -6.5001 H   0  0  0  0  0  0  0  0  0  0  0  0
    1.4292   -1.9700   -4.2405 H   0  0  0  0  0  0  0  0  0  0  0  0
    5.2018   -3.9450   -2.1402 H   0  0  0  0  0  0  0  0  0  0  0  0
    4.5357   -1.1231    1.0062 H   0  0  0  0  0  0  0  0  0  0  0  0
  1  2  2  0  0  0  0
  2  3  1  0  0  0  0
  2 15  1  0  0  0  0
  3  4  1  0  0  0  0
  3 30  1  0  0  0  0
  4  5  1  0  0  0  0
  4 31  1  0  0  0  0
  4 32  1  0  0  0  0
  5  6  2  0  0  0  0
  5 10  1  0  0  0  0
  6  7  1  0  0  0  0
  6 33  1  0  0  0  0
  7  8  2  0  0  0  0
  7 34  1  0  0  0  0
  8  9  1  0  0  0  0
  8 35  1  0  0  0  0
  9 10  2  0  0  0  0
  9 14  1  0  0  0  0
 10 11  1  0  0  0  0
 11 12  1  0  0  0  0
 12 13  2  0  0  0  0
 12 14  1  0  0  0  0
 14 36  1  0  0  0  0
 15 16  2  0  0  0  0
 15 29  1  0  0  0  0
 16 17  1  0  0  0  0
 16 37  1  0  0  0  0
 17 18  1  0  0  0  0
 17 23  2  0  0  0  0
 18 19  1  0  0  0  0
 18 22  1  0  0  0  0
 19 20  2  0  0  0  0
 19 38  1  0  0  0  0
 20 21  1  0  0  0  0
 20 39  1  0  0  0  0
 21 22  2  0  0  0  0
 21 40  1  0  0  0  0
 22 41  1  0  0  0  0
 23 24  1  0  0  0  0
 23 42  1  0  0  0  0
 24 25  1  0  0  0  0
 24 29  2  0  0  0  0
 25 26  1  0  0  0  0
 25 27  1  0  0  0  0
 25 28  1  0  0  0  0
 29 43  1  0  0  0  0
M  END
$$$$
