
 OpenBabel01122422473D

 44 47  0  0  0  0  0  0  0  0999 V2000
   -0.2882   -0.5105   -2.4493 C   0  0  0  0  0  0  0  0  0  0  0  0
   -0.0262   -0.2554   -1.0526 N   0  0  0  0  0  0  0  0  0  0  0  0
    0.4560    0.9580   -0.7192 N   0  0  0  0  0  0  0  0  0  0  0  0
    0.7834    0.8304    0.5643 C   0  0  0  0  0  0  0  0  0  0  0  0
    0.5659   -0.4775    1.0690 C   0  0  0  0  0  0  0  0  0  0  0  0
    0.7318   -0.9513    2.4421 C   0  0  0  0  0  0  0  0  0  0  0  0
    0.5903   -0.0386    3.5038 C   0  0  0  0  0  0  0  0  0  0  0  0
    0.7279   -0.4558    4.8316 C   0  0  0  0  0  0  0  0  0  0  0  0
    1.0019   -1.7883    5.1087 C   0  0  0  0  0  0  0  0  0  0  0  0
    1.1268   -2.1868    6.3799 F   0  0  0  0  0  0  0  0  0  0  0  0
    1.1524   -2.7101    4.0856 C   0  0  0  0  0  0  0  0  0  0  0  0
    1.0283   -2.2843    2.7660 C   0  0  0  0  0  0  0  0  0  0  0  0
    1.2017   -3.2025    1.8008 F   0  0  0  0  0  0  0  0  0  0  0  0
    0.0081   -1.1566   -0.0077 C   0  0  0  0  0  0  0  0  0  0  0  0
   -0.3843   -2.4927    0.0062 N   0  0  0  0  0  0  0  0  0  0  0  0
   -1.6973   -2.9149   -0.4024 C   0  0  0  0  0  0  0  0  0  0  0  0
   -2.4913   -2.0959   -0.8321 O   0  0  0  0  0  0  0  0  0  0  0  0
   -1.9766   -4.3995   -0.2531 C   0  0  0  0  0  0  0  0  0  0  0  0
   -3.1217   -4.6954    0.6748 C   0  0  0  0  0  0  0  0  0  0  0  0
   -4.2545   -5.3003    0.2914 C   0  0  0  0  0  0  0  0  0  0  0  0
   -5.2520   -5.6489    1.2945 C   0  0  0  0  0  0  0  0  0  0  0  0
   -6.4202   -6.3415    0.9407 C   0  0  0  0  0  0  0  0  0  0  0  0
   -7.3604   -6.6859    1.9150 C   0  0  0  0  0  0  0  0  0  0  0  0
   -7.1454   -6.3411    3.2497 C   0  0  0  0  0  0  0  0  0  0  0  0
   -5.9847   -5.6558    3.6106 C   0  0  0  0  0  0  0  0  0  0  0  0
   -5.0364   -5.3156    2.6339 C   0  0  0  0  0  0  0  0  0  0  0  0
   -3.7875   -4.6200    3.0299 C   0  0  0  0  0  0  0  0  0  0  0  0
   -3.5640   -4.3049    4.1916 O   0  0  0  0  0  0  0  0  0  0  0  0
   -2.8808   -4.3626    2.0311 O   0  0  0  0  0  0  0  0  0  0  0  0
   -0.2977    0.4390   -2.9937 H   0  0  0  0  0  0  0  0  0  0  0  0
   -1.2569   -0.9924   -2.5646 H   0  0  0  0  0  0  0  0  0  0  0  0
    0.5117   -1.1450   -2.8387 H   0  0  0  0  0  0  0  0  0  0  0  0
    1.1683    1.7005    1.0834 H   0  0  0  0  0  0  0  0  0  0  0  0
    0.3568    1.0092    3.3218 H   0  0  0  0  0  0  0  0  0  0  0  0
    0.6166    0.2505    5.6499 H   0  0  0  0  0  0  0  0  0  0  0  0
    1.3648   -3.7479    4.3152 H   0  0  0  0  0  0  0  0  0  0  0  0
    0.1936   -3.1316    0.5444 H   0  0  0  0  0  0  0  0  0  0  0  0
   -1.0776   -4.9087    0.1109 H   0  0  0  0  0  0  0  0  0  0  0  0
   -2.1708   -4.7847   -1.2600 H   0  0  0  0  0  0  0  0  0  0  0  0
   -4.4435   -5.5754   -0.7415 H   0  0  0  0  0  0  0  0  0  0  0  0
   -6.6091   -6.6250   -0.0926 H   0  0  0  0  0  0  0  0  0  0  0  0
   -8.2600   -7.2314    1.6354 H   0  0  0  0  0  0  0  0  0  0  0  0
   -7.8790   -6.6113    4.0068 H   0  0  0  0  0  0  0  0  0  0  0  0
   -5.8211   -5.3957    4.6550 H   0  0  0  0  0  0  0  0  0  0  0  0
  1  2  1  0  0  0  0
  1 30  1  0  0  0  0
  1 31  1  0  0  0  0
  1 32  1  0  0  0  0
  2  3  1  0  0  0  0
  2 14  1  0  0  0  0
  3  4  2  0  0  0  0
  4  5  1  0  0  0  0
  4 33  1  0  0  0  0
  5  6  1  0  0  0  0
  5 14  2  0  0  0  0
  6  7  2  0  0  0  0
  6 12  1  0  0  0  0
  7  8  1  0  0  0  0
  7 34  1  0  0  0  0
  8  9  2  0  0  0  0
  8 35  1  0  0  0  0
  9 10  1  0  0  0  0
  9 11  1  0  0  0  0
 11 12  2  0  0  0  0
 11 36  1  0  0  0  0
 12 13  1  0  0  0  0
 14 15  1  0  0  0  0
 15 16  1  0  0  0  0
 15 37  1  0  0  0  0
 16 17  2  0  0  0  0
 16 18  1  0  0  0  0
 18 19  1  0  0  0  0
 18 38  1  0  0  0  0
 18 39  1  0  0  0  0
 19 20  2  0  0  0  0
 19 29  1  0  0  0  0
 20 21  1  0  0  0  0
 20 40  1  0  0  0  0
 21 22  2  0  0  0  0
 21 26  1  0  0  0  0
 22 23  1  0  0  0  0
 22 41  1  0  0  0  0
 23 24  2  0  0  0  0
 23 42  1  0  0  0  0
 24 25  1  0  0  0  0
 24 43  1  0  0  0  0
 25 26  2  0  0  0  0
 25 44  1  0  0  0  0
 26 27  1  0  0  0  0
 27 28  2  0  0  0  0
 27 29  1  0  0  0  0
M  END
$$$$
