
 OpenBabel01122422473D

 50 53  0  0  0  0  0  0  0  0999 V2000
   -4.8791    1.9007   -6.8424 C   0  0  0  0  0  0  0  0  0  0  0  0
   -4.5462    1.5729   -5.4154 C   0  0  0  0  0  0  0  0  0  0  0  0
   -3.4001    2.0934   -4.7980 C   0  0  0  0  0  0  0  0  0  0  0  0
   -3.1035    1.7777   -3.4668 C   0  0  0  0  0  0  0  0  0  0  0  0
   -3.9653    0.9456   -2.7457 C   0  0  0  0  0  0  0  0  0  0  0  0
   -3.5684    0.4686   -1.0743 S   0  0  0  0  0  0  0  0  0  0  0  0
   -4.2354   -0.7893   -0.8075 O   0  0  0  0  0  0  0  0  0  0  0  0
   -2.1348    0.6021   -0.9152 O   0  0  0  0  0  0  0  0  0  0  0  0
   -4.2537    1.6616   -0.1246 N   0  0  0  0  0  0  0  0  0  0  0  0
   -5.6547    1.8825   -0.1176 C   0  0  0  0  0  0  0  0  0  0  0  0
   -6.1821    2.8534   -0.9702 C   0  0  0  0  0  0  0  0  0  0  0  0
   -7.5551    3.1261   -1.0043 C   0  0  0  0  0  0  0  0  0  0  0  0
   -8.1323    4.1045   -1.8580 N   0  0  0  0  0  0  0  0  0  0  0  0
   -7.4394    4.9120   -2.7423 C   0  0  0  0  0  0  0  0  0  0  0  0
   -6.2295    4.8667   -2.9519 O   0  0  0  0  0  0  0  0  0  0  0  0
   -8.2528    5.9158   -3.5055 C   0  0  0  0  0  0  0  0  0  0  0  0
   -7.7037    6.3644   -4.6559 C   0  0  0  0  0  0  0  0  0  0  0  0
   -8.3028    7.4071   -5.3568 N   0  0  0  0  0  0  0  0  0  0  0  0
   -7.9260    8.0632   -6.5189 C   0  0  0  0  0  0  0  0  0  0  0  0
   -6.7143    7.7459   -7.3201 C   0  0  0  0  0  0  0  0  0  0  0  0
   -8.7814    9.0249   -6.8186 N   0  0  0  0  0  0  0  0  0  0  0  0
   -9.7312    9.0101   -5.8323 C   0  0  0  0  0  0  0  0  0  0  0  0
   -9.4674    8.0212   -4.9165 C   0  0  0  0  0  0  0  0  0  0  0  0
  -10.0620    7.5562   -3.7116 C   0  0  0  0  0  0  0  0  0  0  0  0
   -9.4810    6.5484   -3.0282 C   0  0  0  0  0  0  0  0  0  0  0  0
   -8.3990    2.4075   -0.1442 C   0  0  0  0  0  0  0  0  0  0  0  0
   -7.8705    1.4514    0.7359 C   0  0  0  0  0  0  0  0  0  0  0  0
   -6.5021    1.1955    0.7464 C   0  0  0  0  0  0  0  0  0  0  0  0
   -6.0106    0.3100    1.6248 F   0  0  0  0  0  0  0  0  0  0  0  0
   -5.0994    0.4048   -3.3586 C   0  0  0  0  0  0  0  0  0  0  0  0
   -5.3903    0.7253   -4.6858 C   0  0  0  0  0  0  0  0  0  0  0  0
   -4.1272    2.5558   -7.2942 H   0  0  0  0  0  0  0  0  0  0  0  0
   -5.8458    2.4123   -6.8946 H   0  0  0  0  0  0  0  0  0  0  0  0
   -4.9271    0.9839   -7.4395 H   0  0  0  0  0  0  0  0  0  0  0  0
   -2.7251    2.7418   -5.3537 H   0  0  0  0  0  0  0  0  0  0  0  0
   -2.1994    2.1753   -3.0114 H   0  0  0  0  0  0  0  0  0  0  0  0
   -3.6217    2.3186    0.3257 H   0  0  0  0  0  0  0  0  0  0  0  0
   -5.4812    3.3789   -1.6078 H   0  0  0  0  0  0  0  0  0  0  0  0
   -9.1380    4.1972   -1.8176 H   0  0  0  0  0  0  0  0  0  0  0  0
   -6.7742    5.9715   -5.0497 H   0  0  0  0  0  0  0  0  0  0  0  0
   -6.1206    6.9258   -6.9114 H   0  0  0  0  0  0  0  0  0  0  0  0
   -6.0686    8.6283   -7.3799 H   0  0  0  0  0  0  0  0  0  0  0  0
   -7.0059    7.4731   -8.3394 H   0  0  0  0  0  0  0  0  0  0  0  0
  -10.5470    9.7208   -5.8337 H   0  0  0  0  0  0  0  0  0  0  0  0
  -10.9633    8.0384   -3.3447 H   0  0  0  0  0  0  0  0  0  0  0  0
   -9.9147    6.2281   -2.0875 H   0  0  0  0  0  0  0  0  0  0  0  0
   -9.4717    2.5848   -0.1296 H   0  0  0  0  0  0  0  0  0  0  0  0
   -8.5151    0.9089    1.4225 H   0  0  0  0  0  0  0  0  0  0  0  0
   -5.7554   -0.2696   -2.8133 H   0  0  0  0  0  0  0  0  0  0  0  0
   -6.2756    0.3004   -5.1543 H   0  0  0  0  0  0  0  0  0  0  0  0
  1  2  1  0  0  0  0
  1 32  1  0  0  0  0
  1 33  1  0  0  0  0
  1 34  1  0  0  0  0
  2  3  2  0  0  0  0
  2 31  1  0  0  0  0
  3  4  1  0  0  0  0
  3 35  1  0  0  0  0
  4  5  2  0  0  0  0
  4 36  1  0  0  0  0
  5  6  1  0  0  0  0
  5 30  1  0  0  0  0
  6  7  2  0  0  0  0
  6  8  2  0  0  0  0
  6  9  1  0  0  0  0
  9 10  1  0  0  0  0
  9 37  1  0  0  0  0
 10 11  2  0  0  0  0
 10 28  1  0  0  0  0
 11 12  1  0  0  0  0
 11 38  1  0  0  0  0
 12 13  1  0  0  0  0
 12 26  2  0  0  0  0
 13 14  1  0  0  0  0
 13 39  1  0  0  0  0
 14 15  2  0  0  0  0
 14 16  1  0  0  0  0
 16 17  2  0  0  0  0
 16 25  1  0  0  0  0
 17 18  1  0  0  0  0
 17 40  1  0  0  0  0
 18 19  1  0  0  0  0
 18 23  1  0  0  0  0
 19 20  1  0  0  0  0
 19 21  2  0  0  0  0
 20 41  1  0  0  0  0
 20 42  1  0  0  0  0
 20 43  1  0  0  0  0
 21 22  1  0  0  0  0
 22 23  2  0  0  0  0
 22 44  1  0  0  0  0
 23 24  1  0  0  0  0
 24 25  2  0  0  0  0
 24 45  1  0  0  0  0
 25 46  1  0  0  0  0
 26 27  1  0  0  0  0
 26 47  1  0  0  0  0
 27 28  2  0  0  0  0
 27 48  1  0  0  0  0
 28 29  1  0  0  0  0
 30 31  2  0  0  0  0
 30 49  1  0  0  0  0
 31 50  1  0  0  0  0
M  END
$$$$
