
 OpenBabel01122422473D

 45 48  0  0  0  0  0  0  0  0999 V2000
    2.5806   -2.5055   -0.6192 O   0  0  0  0  0  0  0  0  0  0  0  0
    2.1702   -1.6027    0.1050 C   0  0  0  0  0  0  0  0  0  0  0  0
    0.6869   -1.2742    0.2402 C   0  0  0  0  0  0  0  0  0  0  0  0
    0.0085   -2.0520    1.3395 C   0  0  0  0  0  0  0  0  0  0  0  0
   -0.5971   -1.4327    2.3837 C   0  0  0  0  0  0  0  0  0  0  0  0
   -1.2504   -2.2041    3.3809 C   0  0  0  0  0  0  0  0  0  0  0  0
   -1.9563   -1.9544    4.5371 C   0  0  0  0  0  0  0  0  0  0  0  0
   -2.3644   -3.1288    5.1229 N   0  0  0  0  0  0  0  0  0  0  0  0
   -1.9198   -4.0815    4.3327 C   0  0  0  0  0  0  0  0  0  0  0  0
   -1.2430   -3.5823    3.2482 N   0  0  0  0  0  0  0  0  0  0  0  0
   -0.6418   -4.2388    2.1803 C   0  0  0  0  0  0  0  0  0  0  0  0
   -0.0290   -3.5151    1.2272 C   0  0  0  0  0  0  0  0  0  0  0  0
    2.9999   -0.7897    0.8408 N   0  0  0  0  0  0  0  0  0  0  0  0
    4.4382   -0.9527    0.8266 C   0  0  0  0  0  0  0  0  0  0  0  0
    4.9264   -1.9227    1.8766 C   0  0  0  0  0  0  0  0  0  0  0  0
    5.0466   -3.2743    1.5698 C   0  0  0  0  0  0  0  0  0  0  0  0
    5.6373   -4.1246    2.4966 C   0  0  0  0  0  0  0  0  0  0  0  0
    5.8923   -5.4624    2.2736 O   0  0  0  0  0  0  0  0  0  0  0  0
    6.2207   -5.8944    1.0069 C   0  0  0  0  0  0  0  0  0  0  0  0
    6.9085   -5.1190    0.0601 C   0  0  0  0  0  0  0  0  0  0  0  0
    7.1381   -5.6167   -1.2236 C   0  0  0  0  0  0  0  0  0  0  0  0
    6.7500   -6.9124   -1.5346 C   0  0  0  0  0  0  0  0  0  0  0  0
    6.9789   -7.3888   -2.7652 F   0  0  0  0  0  0  0  0  0  0  0  0
    6.1397   -7.7124   -0.5729 C   0  0  0  0  0  0  0  0  0  0  0  0
    5.8000   -8.9742   -0.8677 F   0  0  0  0  0  0  0  0  0  0  0  0
    5.8712   -7.2102    0.6965 C   0  0  0  0  0  0  0  0  0  0  0  0
    5.9729   -3.6349    3.7533 C   0  0  0  0  0  0  0  0  0  0  0  0
    5.7591   -2.2910    4.0037 C   0  0  0  0  0  0  0  0  0  0  0  0
    5.2617   -1.4234    3.0927 N   0  0  0  0  0  0  0  0  0  0  0  0
    0.2018   -1.4744   -0.7216 H   0  0  0  0  0  0  0  0  0  0  0  0
    0.5876   -0.1924    0.4069 H   0  0  0  0  0  0  0  0  0  0  0  0
   -0.6078   -0.3513    2.4733 H   0  0  0  0  0  0  0  0  0  0  0  0
   -2.1913   -0.9971    4.9810 H   0  0  0  0  0  0  0  0  0  0  0  0
   -2.0556   -5.1433    4.4892 H   0  0  0  0  0  0  0  0  0  0  0  0
   -0.7000   -5.3194    2.1581 H   0  0  0  0  0  0  0  0  0  0  0  0
    0.4418   -3.9968    0.3742 H   0  0  0  0  0  0  0  0  0  0  0  0
    2.6147   -0.2571    1.6046 H   0  0  0  0  0  0  0  0  0  0  0  0
    4.8751    0.0337    1.0159 H   0  0  0  0  0  0  0  0  0  0  0  0
    4.7728   -1.2692   -0.1678 H   0  0  0  0  0  0  0  0  0  0  0  0
    4.7153   -3.6310    0.5964 H   0  0  0  0  0  0  0  0  0  0  0  0
    7.2502   -4.1168    0.2981 H   0  0  0  0  0  0  0  0  0  0  0  0
    7.6148   -4.9978   -1.9785 H   0  0  0  0  0  0  0  0  0  0  0  0
    5.3849   -7.8467    1.4311 H   0  0  0  0  0  0  0  0  0  0  0  0
    6.3951   -4.2795    4.5139 H   0  0  0  0  0  0  0  0  0  0  0  0
    6.0028   -1.8583    4.9703 H   0  0  0  0  0  0  0  0  0  0  0  0
  1  2  2  0  0  0  0
  2  3  1  0  0  0  0
  2 13  1  0  0  0  0
  3  4  1  0  0  0  0
  3 30  1  0  0  0  0
  3 31  1  0  0  0  0
  4  5  2  0  0  0  0
  4 12  1  0  0  0  0
  5  6  1  0  0  0  0
  5 32  1  0  0  0  0
  6  7  2  0  0  0  0
  6 10  1  0  0  0  0
  7  8  1  0  0  0  0
  7 33  1  0  0  0  0
  8  9  2  0  0  0  0
  9 10  1  0  0  0  0
  9 34  1  0  0  0  0
 10 11  1  0  0  0  0
 11 12  2  0  0  0  0
 11 35  1  0  0  0  0
 12 36  1  0  0  0  0
 13 14  1  0  0  0  0
 13 37  1  0  0  0  0
 14 15  1  0  0  0  0
 14 38  1  0  0  0  0
 14 39  1  0  0  0  0
 15 16  2  0  0  0  0
 15 29  1  0  0  0  0
 16 17  1  0  0  0  0
 16 40  1  0  0  0  0
 17 18  1  0  0  0  0
 17 27  2  0  0  0  0
 18 19  1  0  0  0  0
 19 20  2  0  0  0  0
 19 26  1  0  0  0  0
 20 21  1  0  0  0  0
 20 41  1  0  0  0  0
 21 22  2  0  0  0  0
 21 42  1  0  0  0  0
 22 23  1  0  0  0  0
 22 24  1  0  0  0  0
 24 25  1  0  0  0  0
 24 26  2  0  0  0  0
 26 43  1  0  0  0  0
 27 28  1  0  0  0  0
 27 44  1  0  0  0  0
 28 29  2  0  0  0  0
 28 45  1  0  0  0  0
M  END
$$$$
