
 OpenBabel01122422473D

 42 45  0  0  0  0  0  0  0  0999 V2000
    1.4498    0.2168   -0.8929 O   0  0  0  0  0  0  0  0  0  0  0  0
    2.2898   -0.0366   -0.0306 C   0  0  0  0  0  0  0  0  0  0  0  0
    2.6593    0.8393    0.9693 N   0  0  0  0  0  0  0  0  0  0  0  0
    2.0105    2.0912    1.0832 C   0  0  0  0  0  0  0  0  0  0  0  0
    2.7510    3.2577    1.0882 C   0  0  0  0  0  0  0  0  0  0  0  0
    4.1044    3.3510    0.9708 O   0  0  0  0  0  0  0  0  0  0  0  0
    4.2719    4.7850    0.8958 C   0  0  0  0  0  0  0  0  0  0  0  0
    3.0387    5.5144    1.0435 O   0  0  0  0  0  0  0  0  0  0  0  0
    2.1421    4.4948    1.1256 C   0  0  0  0  0  0  0  0  0  0  0  0
    0.7714    4.6435    1.2117 C   0  0  0  0  0  0  0  0  0  0  0  0
   -0.0018    3.4809    1.2486 C   0  0  0  0  0  0  0  0  0  0  0  0
    0.6149    2.2205    1.1724 C   0  0  0  0  0  0  0  0  0  0  0  0
   -0.1624    1.1325    1.2667 F   0  0  0  0  0  0  0  0  0  0  0  0
    3.0296   -1.3439   -0.0443 C   0  0  0  0  0  0  0  0  0  0  0  0
    2.5089   -2.2762   -0.8499 C   0  0  0  0  0  0  0  0  0  0  0  0
    3.0461   -3.6450   -0.8103 C   0  0  0  0  0  0  0  0  0  0  0  0
    2.4795   -4.5204   -1.4482 O   0  0  0  0  0  0  0  0  0  0  0  0
    4.2495   -3.8728    0.0427 C   0  0  0  0  0  0  0  0  0  0  0  0
    4.9012   -5.1001    0.1268 O   0  0  0  0  0  0  0  0  0  0  0  0
    4.6615   -6.0095   -0.9511 C   0  0  0  0  0  0  0  0  0  0  0  0
    5.7869   -7.0149   -0.9794 C   0  0  0  0  0  0  0  0  0  0  0  0
    5.9793   -7.9000    0.0920 C   0  0  0  0  0  0  0  0  0  0  0  0
    7.0812   -8.7549    0.1041 C   0  0  0  0  0  0  0  0  0  0  0  0
    7.9664   -8.7490   -0.9681 C   0  0  0  0  0  0  0  0  0  0  0  0
    9.0429   -9.5453   -0.9396 F   0  0  0  0  0  0  0  0  0  0  0  0
    7.7585   -7.9223   -2.0646 C   0  0  0  0  0  0  0  0  0  0  0  0
    6.6726   -7.0491   -2.0684 C   0  0  0  0  0  0  0  0  0  0  0  0
    4.6870   -2.8274    0.7545 C   0  0  0  0  0  0  0  0  0  0  0  0
    4.1166   -1.5686    0.7785 O   0  0  0  0  0  0  0  0  0  0  0  0
    3.6064    0.7647    1.3197 H   0  0  0  0  0  0  0  0  0  0  0  0
    4.7170    5.0367   -0.0736 H   0  0  0  0  0  0  0  0  0  0  0  0
    4.9579    5.0954    1.6909 H   0  0  0  0  0  0  0  0  0  0  0  0
    0.3143    5.6261    1.2465 H   0  0  0  0  0  0  0  0  0  0  0  0
   -1.0814    3.5401    1.3354 H   0  0  0  0  0  0  0  0  0  0  0  0
    1.6522   -2.1136   -1.4924 H   0  0  0  0  0  0  0  0  0  0  0  0
    4.6530   -5.4742   -1.9102 H   0  0  0  0  0  0  0  0  0  0  0  0
    3.7120   -6.5373   -0.8085 H   0  0  0  0  0  0  0  0  0  0  0  0
    5.2823   -7.9088    0.9275 H   0  0  0  0  0  0  0  0  0  0  0  0
    7.2620   -9.4143    0.9465 H   0  0  0  0  0  0  0  0  0  0  0  0
    8.4493   -7.9499   -2.9005 H   0  0  0  0  0  0  0  0  0  0  0  0
    6.5271   -6.3862   -2.9189 H   0  0  0  0  0  0  0  0  0  0  0  0
    5.5537   -2.8753    1.4085 H   0  0  0  0  0  0  0  0  0  0  0  0
  1  2  2  0  0  0  0
  2  3  1  0  0  0  0
  2 14  1  0  0  0  0
  3  4  1  0  0  0  0
  3 30  1  0  0  0  0
  4  5  2  0  0  0  0
  4 12  1  0  0  0  0
  5  6  1  0  0  0  0
  5  9  1  0  0  0  0
  6  7  1  0  0  0  0
  7  8  1  0  0  0  0
  7 31  1  0  0  0  0
  7 32  1  0  0  0  0
  8  9  1  0  0  0  0
  9 10  2  0  0  0  0
 10 11  1  0  0  0  0
 10 33  1  0  0  0  0
 11 12  2  0  0  0  0
 11 34  1  0  0  0  0
 12 13  1  0  0  0  0
 14 15  2  0  0  0  0
 14 29  1  0  0  0  0
 15 16  1  0  0  0  0
 15 35  1  0  0  0  0
 16 17  2  0  0  0  0
 16 18  1  0  0  0  0
 18 19  1  0  0  0  0
 18 28  2  0  0  0  0
 19 20  1  0  0  0  0
 20 21  1  0  0  0  0
 20 36  1  0  0  0  0
 20 37  1  0  0  0  0
 21 22  2  0  0  0  0
 21 27  1  0  0  0  0
 22 23  1  0  0  0  0
 22 38  1  0  0  0  0
 23 24  2  0  0  0  0
 23 39  1  0  0  0  0
 24 25  1  0  0  0  0
 24 26  1  0  0  0  0
 26 27  2  0  0  0  0
 26 40  1  0  0  0  0
 27 41  1  0  0  0  0
 28 29  1  0  0  0  0
 28 42  1  0  0  0  0
M  END
$$$$
