
 OpenBabel01122422473D

 52 55  0  0  1  0  0  0  0  0999 V2000
    2.6856    0.5748   -2.0471 N   0  0  0  0  0  0  0  0  0  0  0  0
    2.0254   -0.5329   -1.2706 C   0  0  1  0  0  0  0  0  0  0  0  0
    3.0686   -1.2965   -0.4421 C   0  0  0  0  0  0  0  0  0  0  0  0
    2.5666   -2.5443    0.2472 C   0  0  0  0  0  0  0  0  0  0  0  0
    2.4511   -3.7446   -0.4655 C   0  0  0  0  0  0  0  0  0  0  0  0
    2.0301   -4.9013    0.1819 C   0  0  0  0  0  0  0  0  0  0  0  0
    1.7466   -4.8754    1.5482 C   0  0  0  0  0  0  0  0  0  0  0  0
    1.8781   -3.6993    2.2922 C   0  0  0  0  0  0  0  0  0  0  0  0
    1.6773   -3.6489    3.6979 N   0  0  0  0  0  0  0  0  0  0  0  0
    1.7031   -4.7478    4.5335 C   0  0  0  0  0  0  0  0  0  0  0  0
    1.9081   -5.9049    4.1742 O   0  0  0  0  0  0  0  0  0  0  0  0
    1.5142   -4.4956    5.9525 C   0  0  0  0  0  0  0  0  0  0  0  0
    1.3096   -3.3272    6.6645 C   0  0  0  0  0  0  0  0  0  0  0  0
    1.2117   -2.0113    6.2837 N   0  0  0  0  0  0  0  0  0  0  0  0
    0.9572   -1.1432    7.2291 C   0  0  0  0  0  0  0  0  0  0  0  0
    0.8050    0.3045    6.8994 C   0  0  0  0  0  0  0  0  0  0  0  0
   -0.0683    1.1325    7.6213 C   0  0  0  0  0  0  0  0  0  0  0  0
   -0.1527    2.4940    7.3259 C   0  0  0  0  0  0  0  0  0  0  0  0
    0.6187    3.0312    6.2983 C   0  0  0  0  0  0  0  0  0  0  0  0
    1.4648    2.2073    5.5555 C   0  0  0  0  0  0  0  0  0  0  0  0
    1.5569    0.8456    5.8514 C   0  0  0  0  0  0  0  0  0  0  0  0
    0.8246   -1.4853    8.6833 C   0  0  0  0  0  0  0  0  0  0  0  0
    0.9411   -2.7807    9.0076 C   0  0  0  0  0  0  0  0  0  0  0  0
    0.8054   -3.2896   10.4011 C   0  0  0  0  0  0  0  0  0  0  0  0
    2.0133   -3.3111   11.0267 F   0  0  0  0  0  0  0  0  0  0  0  0
    0.0285   -2.4445   11.1422 F   0  0  0  0  0  0  0  0  0  0  0  0
    1.1818   -3.7176    8.0131 N   0  0  0  0  0  0  0  0  0  0  0  0
    1.3038   -5.0539    8.1655 N   0  0  0  0  0  0  0  0  0  0  0  0
    1.5090   -5.5083    6.9353 C   0  0  0  0  0  0  0  0  0  0  0  0
    2.2502   -2.5275    1.6218 C   0  0  0  0  0  0  0  0  0  0  0  0
    0.9129    0.1211   -0.4211 C   0  0  0  0  0  0  0  0  0  0  0  0
    0.4202   -0.3109    0.6058 O   0  0  0  0  0  0  0  0  0  0  0  0
    0.5092    1.2934   -0.9879 O   0  0  0  0  0  0  0  0  0  0  0  0
    3.4105    0.1587   -2.6397 H   0  0  0  0  0  0  0  0  0  0  0  0
    3.2137    1.1529   -1.3814 H   0  0  0  0  0  0  0  0  0  0  0  0
    1.5344   -1.1940   -1.9935 H   0  0  0  0  0  0  0  0  0  0  0  0
    3.5304   -0.6332    0.2998 H   0  0  0  0  0  0  0  0  0  0  0  0
    3.8905   -1.6059   -1.1054 H   0  0  0  0  0  0  0  0  0  0  0  0
    2.6990   -3.7956   -1.5232 H   0  0  0  0  0  0  0  0  0  0  0  0
    1.9339   -5.8354   -0.3648 H   0  0  0  0  0  0  0  0  0  0  0  0
    1.4075   -5.8012    2.0037 H   0  0  0  0  0  0  0  0  0  0  0  0
    1.6284   -2.7369    4.1416 H   0  0  0  0  0  0  0  0  0  0  0  0
   -0.7051    0.7382    8.4084 H   0  0  0  0  0  0  0  0  0  0  0  0
   -0.8241    3.1331    7.8949 H   0  0  0  0  0  0  0  0  0  0  0  0
    0.5527    4.0921    6.0690 H   0  0  0  0  0  0  0  0  0  0  0  0
    2.0544    2.6278    4.7445 H   0  0  0  0  0  0  0  0  0  0  0  0
    2.2256    0.2162    5.2694 H   0  0  0  0  0  0  0  0  0  0  0  0
    0.6712   -0.7193    9.4327 H   0  0  0  0  0  0  0  0  0  0  0  0
    0.3522   -4.2820   10.4700 H   0  0  0  0  0  0  0  0  0  0  0  0
    1.6441   -6.5747    6.7815 H   0  0  0  0  0  0  0  0  0  0  0  0
    2.3254   -1.5925    2.1723 H   0  0  0  0  0  0  0  0  0  0  0  0
    1.0819    1.4261   -1.7836 H   0  0  0  0  0  0  0  0  0  0  0  0
  1  2  1  0  0  0  0
  1 34  1  0  0  0  0
  1 35  1  0  0  0  0
  2  3  1  0  0  0  0
  2 31  1  0  0  0  0
  2 36  1  6  0  0  0
  3  4  1  0  0  0  0
  3 37  1  0  0  0  0
  3 38  1  0  0  0  0
  4  5  2  0  0  0  0
  4 30  1  0  0  0  0
  5  6  1  0  0  0  0
  5 39  1  0  0  0  0
  6  7  2  0  0  0  0
  6 40  1  0  0  0  0
  7  8  1  0  0  0  0
  7 41  1  0  0  0  0
  8  9  1  0  0  0  0
  8 30  2  0  0  0  0
  9 10  1  0  0  0  0
  9 42  1  0  0  0  0
 10 11  2  0  0  0  0
 10 12  1  0  0  0  0
 12 13  2  0  0  0  0
 12 29  1  0  0  0  0
 13 14  1  0  0  0  0
 13 27  1  0  0  0  0
 14 15  2  0  0  0  0
 15 16  1  0  0  0  0
 15 22  1  0  0  0  0
 16 17  2  0  0  0  0
 16 21  1  0  0  0  0
 17 18  1  0  0  0  0
 17 43  1  0  0  0  0
 18 19  2  0  0  0  0
 18 44  1  0  0  0  0
 19 20  1  0  0  0  0
 19 45  1  0  0  0  0
 20 21  2  0  0  0  0
 20 46  1  0  0  0  0
 21 47  1  0  0  0  0
 22 23  2  0  0  0  0
 22 48  1  0  0  0  0
 23 24  1  0  0  0  0
 23 27  1  0  0  0  0
 24 25  1  0  0  0  0
 24 26  1  0  0  0  0
 24 49  1  0  0  0  0
 27 28  1  0  0  0  0
 28 29  2  0  0  0  0
 29 50  1  0  0  0  0
 30 51  1  0  0  0  0
 31 32  2  0  0  0  0
 31 33  1  0  0  0  0
 33 52  1  0  0  0  0
M  END
$$$$
