
 OpenBabel01122422473D

 43 46  0  0  0  0  0  0  0  0999 V2000
    1.0917    0.3764    0.2480 O   0  0  0  0  0  0  0  0  0  0  0  0
    2.2538   -0.0208    0.1882 C   0  0  0  0  0  0  0  0  0  0  0  0
    2.7682   -0.8850   -0.7398 N   0  0  0  0  0  0  0  0  0  0  0  0
    2.0933   -1.5016   -1.8053 C   0  0  0  0  0  0  0  0  0  0  0  0
    0.8502   -1.0766   -2.2555 C   0  0  0  0  0  0  0  0  0  0  0  0
    0.1800   -1.7821   -3.2566 C   0  0  0  0  0  0  0  0  0  0  0  0
    0.7327   -2.9286   -3.8508 C   0  0  0  0  0  0  0  0  0  0  0  0
   -0.0339   -3.7046   -4.8529 C   0  0  0  0  0  0  0  0  0  0  0  0
   -0.9300   -3.0736   -5.7342 C   0  0  0  0  0  0  0  0  0  0  0  0
   -1.6973   -3.8141   -6.6287 C   0  0  0  0  0  0  0  0  0  0  0  0
   -2.5615   -3.1804   -7.4326 F   0  0  0  0  0  0  0  0  0  0  0  0
   -1.5889   -5.1948   -6.6946 C   0  0  0  0  0  0  0  0  0  0  0  0
   -0.6996   -5.8461   -5.8465 C   0  0  0  0  0  0  0  0  0  0  0  0
    0.0634   -5.1083   -4.9329 C   0  0  0  0  0  0  0  0  0  0  0  0
    2.0185   -3.3083   -3.4278 C   0  0  0  0  0  0  0  0  0  0  0  0
    2.6946   -2.6011   -2.4218 C   0  0  0  0  0  0  0  0  0  0  0  0
    3.1069    0.3901    1.1755 N   0  0  0  0  0  0  0  0  0  0  0  0
    4.4773    0.1692    1.2953 C   0  0  0  0  0  0  0  0  0  0  0  0
    5.1198    0.6490    2.4329 C   0  0  0  0  0  0  0  0  0  0  0  0
    6.4963    0.4647    2.5543 C   0  0  0  0  0  0  0  0  0  0  0  0
    7.1795   -0.1638    1.5183 C   0  0  0  0  0  0  0  0  0  0  0  0
    8.6342   -0.3582    1.5297 C   0  0  0  0  0  0  0  0  0  0  0  0
    9.3130   -0.0227    2.4894 O   0  0  0  0  0  0  0  0  0  0  0  0
    9.1723   -0.9323    0.4025 N   0  0  0  0  0  0  0  0  0  0  0  0
    8.4792   -1.3214   -0.7089 C   0  0  0  0  0  0  0  0  0  0  0  0
    9.0412   -1.7775   -1.6983 O   0  0  0  0  0  0  0  0  0  0  0  0
    7.1308   -1.1712   -0.6587 N   0  0  0  0  0  0  0  0  0  0  0  0
    6.4669   -0.5997    0.4183 C   0  0  0  0  0  0  0  0  0  0  0  0
    5.1322   -0.4743    0.3021 N   0  0  0  0  0  0  0  0  0  0  0  0
    3.7225   -1.1812   -0.5527 H   0  0  0  0  0  0  0  0  0  0  0  0
    0.3689   -0.1937   -1.8460 H   0  0  0  0  0  0  0  0  0  0  0  0
   -0.8083   -1.4270   -3.5384 H   0  0  0  0  0  0  0  0  0  0  0  0
   -1.0532   -1.9944   -5.7371 H   0  0  0  0  0  0  0  0  0  0  0  0
   -2.1989   -5.7497   -7.3988 H   0  0  0  0  0  0  0  0  0  0  0  0
   -0.6066   -6.9285   -5.8822 H   0  0  0  0  0  0  0  0  0  0  0  0
    0.7218   -5.6542   -4.2598 H   0  0  0  0  0  0  0  0  0  0  0  0
    2.5124   -4.1715   -3.8692 H   0  0  0  0  0  0  0  0  0  0  0  0
    3.6726   -2.9521   -2.1044 H   0  0  0  0  0  0  0  0  0  0  0  0
    2.6401    0.9535    1.8716 H   0  0  0  0  0  0  0  0  0  0  0  0
    4.5711    1.1601    3.2184 H   0  0  0  0  0  0  0  0  0  0  0  0
    7.0270    0.8254    3.4324 H   0  0  0  0  0  0  0  0  0  0  0  0
   10.1749   -1.0487    0.3742 H   0  0  0  0  0  0  0  0  0  0  0  0
    6.5901   -1.4334   -1.4716 H   0  0  0  0  0  0  0  0  0  0  0  0
  1  2  2  0  0  0  0
  2  3  1  0  0  0  0
  2 17  1  0  0  0  0
  3  4  1  0  0  0  0
  3 30  1  0  0  0  0
  4  5  2  0  0  0  0
  4 16  1  0  0  0  0
  5  6  1  0  0  0  0
  5 31  1  0  0  0  0
  6  7  2  0  0  0  0
  6 32  1  0  0  0  0
  7  8  1  0  0  0  0
  7 15  1  0  0  0  0
  8  9  2  0  0  0  0
  8 14  1  0  0  0  0
  9 10  1  0  0  0  0
  9 33  1  0  0  0  0
 10 11  1  0  0  0  0
 10 12  2  0  0  0  0
 12 13  1  0  0  0  0
 12 34  1  0  0  0  0
 13 14  2  0  0  0  0
 13 35  1  0  0  0  0
 14 36  1  0  0  0  0
 15 16  2  0  0  0  0
 15 37  1  0  0  0  0
 16 38  1  0  0  0  0
 17 18  1  0  0  0  0
 17 39  1  0  0  0  0
 18 19  2  0  0  0  0
 18 29  1  0  0  0  0
 19 20  1  0  0  0  0
 19 40  1  0  0  0  0
 20 21  2  0  0  0  0
 20 41  1  0  0  0  0
 21 22  1  0  0  0  0
 21 28  1  0  0  0  0
 22 23  2  0  0  0  0
 22 24  1  0  0  0  0
 24 25  1  0  0  0  0
 24 42  1  0  0  0  0
 25 26  2  0  0  0  0
 25 27  1  0  0  0  0
 27 28  1  0  0  0  0
 27 43  1  0  0  0  0
 28 29  2  0  0  0  0
M  END
$$$$
