
 OpenBabel01122422453D

 47 50  0  0  0  0  0  0  0  0999 V2000
    0.1721    2.6266    2.3639 C   0  0  0  0  0  0  0  0  0  0  0  0
    0.0364    1.6339    1.2459 C   0  0  0  0  0  0  0  0  0  0  0  0
   -0.9385    0.7852    1.2245 N   0  0  0  0  0  0  0  0  0  0  0  0
   -1.0130   -0.1069    0.1404 C   0  0  0  0  0  0  0  0  0  0  0  0
   -2.0739   -1.0184    0.0916 C   0  0  0  0  0  0  0  0  0  0  0  0
   -2.1949   -1.9119   -0.9826 C   0  0  0  0  0  0  0  0  0  0  0  0
   -3.3362   -2.8640   -1.0923 C   0  0  0  0  0  0  0  0  0  0  0  0
   -3.7372   -3.2115   -2.1969 O   0  0  0  0  0  0  0  0  0  0  0  0
   -3.8728   -3.3194    0.0915 N   0  0  0  0  0  0  0  0  0  0  0  0
   -4.9902   -4.2373    0.1224 C   0  0  0  0  0  0  0  0  0  0  0  0
   -4.5519   -5.6712    0.1990 C   0  0  0  0  0  0  0  0  0  0  0  0
   -4.3685   -6.4385   -0.9549 C   0  0  0  0  0  0  0  0  0  0  0  0
   -3.9827   -7.7821   -0.8587 C   0  0  0  0  0  0  0  0  0  0  0  0
   -3.7697   -8.4045    0.3858 C   0  0  0  0  0  0  0  0  0  0  0  0
   -3.4106   -9.8383    0.4844 C   0  0  0  0  0  0  0  0  0  0  0  0
   -2.5859  -10.3244    1.5160 C   0  0  0  0  0  0  0  0  0  0  0  0
   -2.2930  -11.6869    1.6347 C   0  0  0  0  0  0  0  0  0  0  0  0
   -2.8095  -12.5942    0.7157 C   0  0  0  0  0  0  0  0  0  0  0  0
   -3.6099  -12.1400   -0.3263 C   0  0  0  0  0  0  0  0  0  0  0  0
   -3.9063  -10.7787   -0.4379 C   0  0  0  0  0  0  0  0  0  0  0  0
   -3.9396   -7.6126    1.5334 C   0  0  0  0  0  0  0  0  0  0  0  0
   -4.3170   -6.2742    1.4329 C   0  0  0  0  0  0  0  0  0  0  0  0
   -4.4711   -5.5643    2.5602 F   0  0  0  0  0  0  0  0  0  0  0  0
   -1.2506   -1.8836   -2.0196 C   0  0  0  0  0  0  0  0  0  0  0  0
   -0.1831   -0.9846   -1.9759 C   0  0  0  0  0  0  0  0  0  0  0  0
   -0.0749   -0.1042   -0.8970 C   0  0  0  0  0  0  0  0  0  0  0  0
    1.0225    0.8750   -0.8161 C   0  0  0  0  0  0  0  0  0  0  0  0
    1.8993    0.9469   -1.6702 O   0  0  0  0  0  0  0  0  0  0  0  0
    1.0005    1.7023    0.2769 N   0  0  0  0  0  0  0  0  0  0  0  0
   -0.6309    2.4935    3.0938 H   0  0  0  0  0  0  0  0  0  0  0  0
    0.1228    3.6423    1.9598 H   0  0  0  0  0  0  0  0  0  0  0  0
    1.1363    2.4920    2.8622 H   0  0  0  0  0  0  0  0  0  0  0  0
   -2.8155   -0.9878    0.8849 H   0  0  0  0  0  0  0  0  0  0  0  0
   -3.3961   -3.1441    0.9647 H   0  0  0  0  0  0  0  0  0  0  0  0
   -5.6316   -4.0811   -0.7527 H   0  0  0  0  0  0  0  0  0  0  0  0
   -5.5919   -3.9830    1.0025 H   0  0  0  0  0  0  0  0  0  0  0  0
   -4.5286   -5.9993   -1.9386 H   0  0  0  0  0  0  0  0  0  0  0  0
   -3.8480   -8.3398   -1.7840 H   0  0  0  0  0  0  0  0  0  0  0  0
   -2.1541   -9.6445    2.2470 H   0  0  0  0  0  0  0  0  0  0  0  0
   -1.6636  -12.0358    2.4492 H   0  0  0  0  0  0  0  0  0  0  0  0
   -2.5904  -13.6541    0.8120 H   0  0  0  0  0  0  0  0  0  0  0  0
   -4.0160  -12.8416   -1.0498 H   0  0  0  0  0  0  0  0  0  0  0  0
   -4.5548  -10.4655   -1.2531 H   0  0  0  0  0  0  0  0  0  0  0  0
   -3.8052   -8.0256    2.5290 H   0  0  0  0  0  0  0  0  0  0  0  0
   -1.3499   -2.5613   -2.8660 H   0  0  0  0  0  0  0  0  0  0  0  0
    0.5486   -0.9656   -2.7806 H   0  0  0  0  0  0  0  0  0  0  0  0
    1.7483    2.3784    0.3325 H   0  0  0  0  0  0  0  0  0  0  0  0
  1  2  1  0  0  0  0
  1 30  1  0  0  0  0
  1 31  1  0  0  0  0
  1 32  1  0  0  0  0
  2  3  2  0  0  0  0
  2 29  1  0  0  0  0
  3  4  1  0  0  0  0
  4  5  2  0  0  0  0
  4 26  1  0  0  0  0
  5  6  1  0  0  0  0
  5 33  1  0  0  0  0
  6  7  1  0  0  0  0
  6 24  2  0  0  0  0
  7  8  2  0  0  0  0
  7  9  1  0  0  0  0
  9 10  1  0  0  0  0
  9 34  1  0  0  0  0
 10 11  1  0  0  0  0
 10 35  1  0  0  0  0
 10 36  1  0  0  0  0
 11 12  2  0  0  0  0
 11 22  1  0  0  0  0
 12 13  1  0  0  0  0
 12 37  1  0  0  0  0
 13 14  2  0  0  0  0
 13 38  1  0  0  0  0
 14 15  1  0  0  0  0
 14 21  1  0  0  0  0
 15 16  2  0  0  0  0
 15 20  1  0  0  0  0
 16 17  1  0  0  0  0
 16 39  1  0  0  0  0
 17 18  2  0  0  0  0
 17 40  1  0  0  0  0
 18 19  1  0  0  0  0
 18 41  1  0  0  0  0
 19 20  2  0  0  0  0
 19 42  1  0  0  0  0
 20 43  1  0  0  0  0
 21 22  2  0  0  0  0
 21 44  1  0  0  0  0
 22 23  1  0  0  0  0
 24 25  1  0  0  0  0
 24 45  1  0  0  0  0
 25 26  2  0  0  0  0
 25 46  1  0  0  0  0
 26 27  1  0  0  0  0
 27 28  2  0  0  0  0
 27 29  1  0  0  0  0
 29 47  1  0  0  0  0
M  END
$$$$
