
 OpenBabel01122422473D

 49 52  0  0  0  0  0  0  0  0999 V2000
    1.0053    0.1789   -0.1523 O   0  0  0  0  0  0  0  0  0  0  0  0
    2.2210    0.0592   -0.0541 C   0  0  0  0  0  0  0  0  0  0  0  0
    2.9139    0.2085    1.1252 N   0  0  0  0  0  0  0  0  0  0  0  0
    2.2296    0.5320    2.3575 C   0  0  0  0  0  0  0  0  0  0  0  0
    2.4570   -0.5125    3.4222 C   0  0  0  0  0  0  0  0  0  0  0  0
    3.0465   -0.1709    4.6469 C   0  0  0  0  0  0  0  0  0  0  0  0
    3.1960   -1.1279    5.6581 C   0  0  0  0  0  0  0  0  0  0  0  0
    2.7537   -2.4407    5.4629 C   0  0  0  0  0  0  0  0  0  0  0  0
    2.9200   -3.4517    6.5228 C   0  0  0  0  0  0  0  0  0  0  0  0
    1.9458   -3.5979    7.4412 C   0  0  0  0  0  0  0  0  0  0  0  0
    2.0535   -4.5314    8.4433 N   0  0  0  0  0  0  0  0  0  0  0  0
    3.1281   -5.3779    8.5975 C   0  0  0  0  0  0  0  0  0  0  0  0
    3.2026   -6.2034    9.4966 O   0  0  0  0  0  0  0  0  0  0  0  0
    4.2100   -5.2272    7.5927 C   0  0  0  0  0  0  0  0  0  0  0  0
    4.0918   -4.3100    6.6209 C   0  0  0  0  0  0  0  0  0  0  0  0
    2.1651   -2.7871    4.2417 C   0  0  0  0  0  0  0  0  0  0  0  0
    2.0202   -1.8314    3.2297 C   0  0  0  0  0  0  0  0  0  0  0  0
    3.0201   -0.2283   -1.2675 C   0  0  0  0  0  0  0  0  0  0  0  0
    2.5384    0.2400   -2.4924 C   0  0  0  0  0  0  0  0  0  0  0  0
    3.2565   -0.0275   -3.6551 C   0  0  0  0  0  0  0  0  0  0  0  0
    2.8211    0.4646   -4.9797 C   0  0  0  0  0  0  0  0  0  0  0  0
    2.1142    1.6753   -5.1227 C   0  0  0  0  0  0  0  0  0  0  0  0
    1.6865    2.1299   -6.3733 C   0  0  0  0  0  0  0  0  0  0  0  0
    1.9648    1.3868   -7.5150 C   0  0  0  0  0  0  0  0  0  0  0  0
    2.6709    0.1921   -7.4064 C   0  0  0  0  0  0  0  0  0  0  0  0
    3.0945   -0.2619   -6.1523 C   0  0  0  0  0  0  0  0  0  0  0  0
    4.4013   -0.7583   -3.6245 N   0  0  0  0  0  0  0  0  0  0  0  0
    4.8145   -1.1992   -2.4252 C   0  0  0  0  0  0  0  0  0  0  0  0
    5.9586   -1.9274   -2.4641 O   0  0  0  0  0  0  0  0  0  0  0  0
    4.1883   -0.9746   -1.2233 C   0  0  0  0  0  0  0  0  0  0  0  0
    3.9242    0.2425    1.1270 H   0  0  0  0  0  0  0  0  0  0  0  0
    1.1524    0.6451    2.1947 H   0  0  0  0  0  0  0  0  0  0  0  0
    2.6118    1.5074    2.6797 H   0  0  0  0  0  0  0  0  0  0  0  0
    3.3817    0.8469    4.8318 H   0  0  0  0  0  0  0  0  0  0  0  0
    3.6507   -0.8368    6.6024 H   0  0  0  0  0  0  0  0  0  0  0  0
    1.0373   -3.0015    7.4421 H   0  0  0  0  0  0  0  0  0  0  0  0
    1.3150   -4.6347    9.1266 H   0  0  0  0  0  0  0  0  0  0  0  0
    5.0662   -5.8799    7.6921 H   0  0  0  0  0  0  0  0  0  0  0  0
    4.8766   -4.1898    5.8803 H   0  0  0  0  0  0  0  0  0  0  0  0
    1.8049   -3.7995    4.0723 H   0  0  0  0  0  0  0  0  0  0  0  0
    1.5475   -2.1167    2.2911 H   0  0  0  0  0  0  0  0  0  0  0  0
    1.6055    0.7952   -2.5255 H   0  0  0  0  0  0  0  0  0  0  0  0
    1.8927    2.2946   -4.2561 H   0  0  0  0  0  0  0  0  0  0  0  0
    1.1385    3.0654   -6.4506 H   0  0  0  0  0  0  0  0  0  0  0  0
    1.6337    1.7399   -8.4881 H   0  0  0  0  0  0  0  0  0  0  0  0
    2.8918   -0.3909   -8.2967 H   0  0  0  0  0  0  0  0  0  0  0  0
    3.6380   -1.2036   -6.0931 H   0  0  0  0  0  0  0  0  0  0  0  0
    6.1457   -1.9079   -3.4205 H   0  0  0  0  0  0  0  0  0  0  0  0
    4.5841   -1.3983   -0.3106 H   0  0  0  0  0  0  0  0  0  0  0  0
  1  2  2  0  0  0  0
  2  3  1  0  0  0  0
  2 18  1  0  0  0  0
  3  4  1  0  0  0  0
  3 31  1  0  0  0  0
  4  5  1  0  0  0  0
  4 32  1  0  0  0  0
  4 33  1  0  0  0  0
  5  6  2  0  0  0  0
  5 17  1  0  0  0  0
  6  7  1  0  0  0  0
  6 34  1  0  0  0  0
  7  8  2  0  0  0  0
  7 35  1  0  0  0  0
  8  9  1  0  0  0  0
  8 16  1  0  0  0  0
  9 10  2  0  0  0  0
  9 15  1  0  0  0  0
 10 11  1  0  0  0  0
 10 36  1  0  0  0  0
 11 12  1  0  0  0  0
 11 37  1  0  0  0  0
 12 13  2  0  0  0  0
 12 14  1  0  0  0  0
 14 15  2  0  0  0  0
 14 38  1  0  0  0  0
 15 39  1  0  0  0  0
 16 17  2  0  0  0  0
 16 40  1  0  0  0  0
 17 41  1  0  0  0  0
 18 19  2  0  0  0  0
 18 30  1  0  0  0  0
 19 20  1  0  0  0  0
 19 42  1  0  0  0  0
 20 21  1  0  0  0  0
 20 27  2  0  0  0  0
 21 22  2  0  0  0  0
 21 26  1  0  0  0  0
 22 23  1  0  0  0  0
 22 43  1  0  0  0  0
 23 24  2  0  0  0  0
 23 44  1  0  0  0  0
 24 25  1  0  0  0  0
 24 45  1  0  0  0  0
 25 26  2  0  0  0  0
 25 46  1  0  0  0  0
 26 47  1  0  0  0  0
 27 28  1  0  0  0  0
 28 29  1  0  0  0  0
 28 30  2  0  0  0  0
 29 48  1  0  0  0  0
 30 49  1  0  0  0  0
M  END
$$$$
