
 OpenBabel01122422473D

 46 49  0  0  1  0  0  0  0  0999 V2000
    1.1366    0.3423   -0.3538 O   0  0  0  0  0  0  0  0  0  0  0  0
    2.3521    0.2186   -0.2231 C   0  0  0  0  0  0  0  0  0  0  0  0
    3.0313    0.7799    0.8324 N   0  0  0  0  0  0  0  0  0  0  0  0
    2.3644    1.5711    1.8357 C   0  0  3  0  0  0  0  0  0  0  0  0
    1.8876    0.7247    3.0088 C   0  0  0  0  0  0  0  0  0  0  0  0
    2.8006   -0.0121    3.7823 C   0  0  0  0  0  0  0  0  0  0  0  0
    2.3782   -0.7125    4.9108 C   0  0  0  0  0  0  0  0  0  0  0  0
    1.0385   -0.6780    5.2935 C   0  0  0  0  0  0  0  0  0  0  0  0
    0.1037    0.0510    4.5449 C   0  0  0  0  0  0  0  0  0  0  0  0
   -1.3369    0.1475    4.9846 C   0  0  0  0  0  0  0  0  0  0  0  0
   -1.5974   -0.4965    6.1565 F   0  0  0  0  0  0  0  0  0  0  0  0
   -1.7229    1.4411    5.1819 F   0  0  0  0  0  0  0  0  0  0  0  0
   -2.2067   -0.3647    4.0723 F   0  0  0  0  0  0  0  0  0  0  0  0
    0.5349    0.7318    3.3916 C   0  0  0  0  0  0  0  0  0  0  0  0
    3.2913    2.6512    2.3079 C   0  0  0  0  0  0  0  0  0  0  0  0
    4.6100    2.6399    2.3510 N   0  0  0  0  0  0  0  0  0  0  0  0
    5.0243    3.7958    2.9712 N   0  0  0  0  0  0  0  0  0  0  0  0
    3.9541    4.4851    3.2880 C   0  0  0  0  0  0  0  0  0  0  0  0
    2.8442    3.8209    2.8677 N   0  0  0  0  0  0  0  0  0  0  0  0
    3.2106   -0.5011   -1.1787 C   0  0  0  0  0  0  0  0  0  0  0  0
    4.5558   -0.5536   -1.0465 N   0  0  0  0  0  0  0  0  0  0  0  0
    5.0012   -1.2498   -2.1381 N   0  0  0  0  0  0  0  0  0  0  0  0
    6.3947   -1.4684   -2.3423 C   0  0  0  0  0  0  0  0  0  0  0  0
    7.3172   -0.9848   -1.3993 C   0  0  0  0  0  0  0  0  0  0  0  0
    8.6913   -1.1985   -1.5799 C   0  0  0  0  0  0  0  0  0  0  0  0
    9.1575   -1.8882   -2.6947 C   0  0  0  0  0  0  0  0  0  0  0  0
    8.2497   -2.3630   -3.6378 C   0  0  0  0  0  0  0  0  0  0  0  0
    6.8819   -2.1531   -3.4604 C   0  0  0  0  0  0  0  0  0  0  0  0
    6.0743   -2.6348   -4.4143 F   0  0  0  0  0  0  0  0  0  0  0  0
    3.9505   -1.6645   -2.9267 C   0  0  0  0  0  0  0  0  0  0  0  0
    2.8105   -1.2044   -2.3340 C   0  0  0  0  0  0  0  0  0  0  0  0
    1.5769   -1.4100   -2.8164 O   0  0  0  0  0  0  0  0  0  0  0  0
    4.0364    0.6432    0.8769 H   0  0  0  0  0  0  0  0  0  0  0  0
    1.4968    2.0519    1.3647 H   0  0  0  0  0  0  0  0  0  0  0  0
    3.8585   -0.0190    3.5207 H   0  0  0  0  0  0  0  0  0  0  0  0
    3.1012   -1.2689    5.5028 H   0  0  0  0  0  0  0  0  0  0  0  0
    0.7295   -1.2155    6.1888 H   0  0  0  0  0  0  0  0  0  0  0  0
   -0.1951    1.2849    2.7994 H   0  0  0  0  0  0  0  0  0  0  0  0
    3.9285    5.4328    3.8060 H   0  0  0  0  0  0  0  0  0  0  0  0
    1.8834    4.1059    2.9898 H   0  0  0  0  0  0  0  0  0  0  0  0
    6.9876   -0.4387   -0.5164 H   0  0  0  0  0  0  0  0  0  0  0  0
    9.3956   -0.8213   -0.8391 H   0  0  0  0  0  0  0  0  0  0  0  0
   10.2238   -2.0536   -2.8302 H   0  0  0  0  0  0  0  0  0  0  0  0
    8.5987   -2.8983   -4.5159 H   0  0  0  0  0  0  0  0  0  0  0  0
    4.0905   -2.2349   -3.8297 H   0  0  0  0  0  0  0  0  0  0  0  0
    1.6074   -1.9472   -3.6264 H   0  0  0  0  0  0  0  0  0  0  0  0
  1  2  2  0  0  0  0
  2  3  1  0  0  0  0
  2 20  1  0  0  0  0
  3  4  1  0  0  0  0
  3 33  1  0  0  0  0
  4  5  1  0  0  0  0
  4 15  1  0  0  0  0
  4 34  1  0  0  0  0
  5  6  2  0  0  0  0
  5 14  1  0  0  0  0
  6  7  1  0  0  0  0
  6 35  1  0  0  0  0
  7  8  2  0  0  0  0
  7 36  1  0  0  0  0
  8  9  1  0  0  0  0
  8 37  1  0  0  0  0
  9 10  1  0  0  0  0
  9 14  2  0  0  0  0
 10 11  1  0  0  0  0
 10 12  1  0  0  0  0
 10 13  1  0  0  0  0
 14 38  1  0  0  0  0
 15 16  2  0  0  0  0
 15 19  1  0  0  0  0
 16 17  1  0  0  0  0
 17 18  2  0  0  0  0
 18 19  1  0  0  0  0
 18 39  1  0  0  0  0
 19 40  1  0  0  0  0
 20 21  2  0  0  0  0
 20 31  1  0  0  0  0
 21 22  1  0  0  0  0
 22 23  1  0  0  0  0
 22 30  1  0  0  0  0
 23 24  2  0  0  0  0
 23 28  1  0  0  0  0
 24 25  1  0  0  0  0
 24 41  1  0  0  0  0
 25 26  2  0  0  0  0
 25 42  1  0  0  0  0
 26 27  1  0  0  0  0
 26 43  1  0  0  0  0
 27 28  2  0  0  0  0
 27 44  1  0  0  0  0
 28 29  1  0  0  0  0
 30 31  2  0  0  0  0
 30 45  1  0  0  0  0
 31 32  1  0  0  0  0
 32 46  1  0  0  0  0
M  END
$$$$
