
 OpenBabel01122422473D

 46 49  0  0  0  0  0  0  0  0999 V2000
    0.9399    0.9729    6.1620 N   0  0  0  0  0  0  0  0  0  0  0  0
    1.7568    1.2146    5.3735 C   0  0  0  0  0  0  0  0  0  0  0  0
    2.7293    1.5256    4.3724 C   0  0  0  0  0  0  0  0  0  0  0  0
    2.3259    2.0058    3.1183 C   0  0  0  0  0  0  0  0  0  0  0  0
    3.2779    2.3115    2.1313 C   0  0  0  0  0  0  0  0  0  0  0  0
    2.8454    2.8010    0.7691 C   0  0  0  0  0  0  0  0  0  0  0  0
    2.1697    4.0641    0.8801 O   0  0  0  0  0  0  0  0  0  0  0  0
    2.7428    5.0931    0.2055 C   0  0  0  0  0  0  0  0  0  0  0  0
    3.8063    5.0495   -0.3934 O   0  0  0  0  0  0  0  0  0  0  0  0
    1.8873    6.3133    0.2174 C   0  0  0  0  0  0  0  0  0  0  0  0
    0.6943    6.3995    0.9772 C   0  0  0  0  0  0  0  0  0  0  0  0
   -0.0956    7.5577    0.9482 C   0  0  0  0  0  0  0  0  0  0  0  0
    0.3331    8.5877    0.1404 C   0  0  0  0  0  0  0  0  0  0  0  0
   -0.2650    9.8175   -0.0991 N   0  0  0  0  0  0  0  0  0  0  0  0
    0.4912   10.5227   -1.0480 C   0  0  0  0  0  0  0  0  0  0  0  0
    0.2120   11.6180   -1.5053 O   0  0  0  0  0  0  0  0  0  0  0  0
    1.5999    9.7072   -1.3585 N   0  0  0  0  0  0  0  0  0  0  0  0
    2.5283    9.9857   -2.4283 C   0  0  0  0  0  0  0  0  0  0  0  0
    2.0488    9.4206   -3.7482 C   0  0  0  0  0  0  0  0  0  0  0  0
    1.1813   10.1616   -4.5657 C   0  0  0  0  0  0  0  0  0  0  0  0
    0.6332    9.5938   -5.7179 C   0  0  0  0  0  0  0  0  0  0  0  0
    0.9446    8.2810   -6.0652 C   0  0  0  0  0  0  0  0  0  0  0  0
    1.8328    7.5476   -5.2821 C   0  0  0  0  0  0  0  0  0  0  0  0
    2.3891    8.1167   -4.1355 C   0  0  0  0  0  0  0  0  0  0  0  0
    1.4949    8.5123   -0.6260 C   0  0  0  0  0  0  0  0  0  0  0  0
    2.2984    7.3936   -0.5889 C   0  0  0  0  0  0  0  0  0  0  0  0
    4.6394    2.1283    2.4206 C   0  0  0  0  0  0  0  0  0  0  0  0
    5.0413    1.6477    3.6687 C   0  0  0  0  0  0  0  0  0  0  0  0
    4.0852    1.3506    4.6348 C   0  0  0  0  0  0  0  0  0  0  0  0
    4.4953    0.8895    5.8253 F   0  0  0  0  0  0  0  0  0  0  0  0
    1.2659    2.1389    2.9040 H   0  0  0  0  0  0  0  0  0  0  0  0
    2.1351    2.0818    0.3445 H   0  0  0  0  0  0  0  0  0  0  0  0
    3.6998    2.8263    0.0828 H   0  0  0  0  0  0  0  0  0  0  0  0
    0.3701    5.5628    1.5926 H   0  0  0  0  0  0  0  0  0  0  0  0
   -1.0107    7.6282    1.5250 H   0  0  0  0  0  0  0  0  0  0  0  0
   -1.1344   10.1584    0.2836 H   0  0  0  0  0  0  0  0  0  0  0  0
    3.5191    9.5958   -2.1698 H   0  0  0  0  0  0  0  0  0  0  0  0
    2.6353   11.0739   -2.5225 H   0  0  0  0  0  0  0  0  0  0  0  0
    0.9064   11.1800   -4.2942 H   0  0  0  0  0  0  0  0  0  0  0  0
   -0.0533   10.1705   -6.3326 H   0  0  0  0  0  0  0  0  0  0  0  0
    0.4917    7.8282   -6.9431 H   0  0  0  0  0  0  0  0  0  0  0  0
    2.0815    6.5253   -5.5546 H   0  0  0  0  0  0  0  0  0  0  0  0
    3.0741    7.5236   -3.5364 H   0  0  0  0  0  0  0  0  0  0  0  0
    3.2159    7.3386   -1.1632 H   0  0  0  0  0  0  0  0  0  0  0  0
    5.3981    2.3547    1.6722 H   0  0  0  0  0  0  0  0  0  0  0  0
    6.0942    1.5018    3.8931 H   0  0  0  0  0  0  0  0  0  0  0  0
  1  2  3  0  0  0  0
  2  3  1  0  0  0  0
  3  4  2  0  0  0  0
  3 29  1  0  0  0  0
  4  5  1  0  0  0  0
  4 31  1  0  0  0  0
  5  6  1  0  0  0  0
  5 27  2  0  0  0  0
  6  7  1  0  0  0  0
  6 32  1  0  0  0  0
  6 33  1  0  0  0  0
  7  8  1  0  0  0  0
  8  9  2  0  0  0  0
  8 10  1  0  0  0  0
 10 11  2  0  0  0  0
 10 26  1  0  0  0  0
 11 12  1  0  0  0  0
 11 34  1  0  0  0  0
 12 13  2  0  0  0  0
 12 35  1  0  0  0  0
 13 14  1  0  0  0  0
 13 25  1  0  0  0  0
 14 15  1  0  0  0  0
 14 36  1  0  0  0  0
 15 16  2  0  0  0  0
 15 17  1  0  0  0  0
 17 18  1  0  0  0  0
 17 25  1  0  0  0  0
 18 19  1  0  0  0  0
 18 37  1  0  0  0  0
 18 38  1  0  0  0  0
 19 20  2  0  0  0  0
 19 24  1  0  0  0  0
 20 21  1  0  0  0  0
 20 39  1  0  0  0  0
 21 22  2  0  0  0  0
 21 40  1  0  0  0  0
 22 23  1  0  0  0  0
 22 41  1  0  0  0  0
 23 24  2  0  0  0  0
 23 42  1  0  0  0  0
 24 43  1  0  0  0  0
 25 26  2  0  0  0  0
 26 44  1  0  0  0  0
 27 28  1  0  0  0  0
 27 45  1  0  0  0  0
 28 29  2  0  0  0  0
 28 46  1  0  0  0  0
 29 30  1  0  0  0  0
M  END
$$$$
