
 OpenBabel01122422473D

 52 55  0  0  0  0  0  0  0  0999 V2000
    2.6744   -0.2475    0.6421 C   0  0  0  0  0  0  0  0  0  0  0  0
    1.2215   -0.0803    0.2662 C   0  0  0  0  0  0  0  0  0  0  0  0
    0.6353    1.2109    0.2132 C   0  0  0  0  0  0  0  0  0  0  0  0
    1.3941    2.4144    0.2628 N   0  0  0  0  0  0  0  0  0  0  0  0
    2.4486    2.6172   -0.6196 C   0  0  0  0  0  0  0  0  0  0  0  0
    2.7681    1.8299   -1.5066 O   0  0  0  0  0  0  0  0  0  0  0  0
    3.1831    3.9155   -0.5377 C   0  0  0  0  0  0  0  0  0  0  0  0
    3.9347    4.2808   -1.6777 C   0  0  0  0  0  0  0  0  0  0  0  0
    4.6493    5.4715   -1.7149 C   0  0  0  0  0  0  0  0  0  0  0  0
    4.6703    6.2448   -0.5700 C   0  0  0  0  0  0  0  0  0  0  0  0
    5.5309    7.4180   -0.4839 C   0  0  0  0  0  0  0  0  0  0  0  0
    5.4580    8.3363   -1.2860 O   0  0  0  0  0  0  0  0  0  0  0  0
    6.3764    7.3232    0.5909 N   0  0  0  0  0  0  0  0  0  0  0  0
    7.7490    7.0366    0.2392 C   0  0  0  0  0  0  0  0  0  0  0  0
    5.8783    6.9330    1.8259 C   0  0  0  0  0  0  0  0  0  0  0  0
    6.5281    6.9478    2.8661 O   0  0  0  0  0  0  0  0  0  0  0  0
    4.5976    6.3921    1.8113 N   0  0  0  0  0  0  0  0  0  0  0  0
    4.1041    5.8112    0.6263 C   0  0  0  0  0  0  0  0  0  0  0  0
    3.2646    4.6942    0.6334 C   0  0  0  0  0  0  0  0  0  0  0  0
   -0.7529    1.3464    0.0970 C   0  0  0  0  0  0  0  0  0  0  0  0
   -1.5622    0.2220   -0.0509 C   0  0  0  0  0  0  0  0  0  0  0  0
   -0.9905   -1.0485   -0.0963 C   0  0  0  0  0  0  0  0  0  0  0  0
    0.3991   -1.2169    0.0374 C   0  0  0  0  0  0  0  0  0  0  0  0
    0.9465   -2.6229   -0.0217 C   0  0  0  0  0  0  0  0  0  0  0  0
    1.8722   -2.9442    0.7129 O   0  0  0  0  0  0  0  0  0  0  0  0
    0.3334   -3.4562   -0.9538 N   0  0  0  0  0  0  0  0  0  0  0  0
    0.6053   -4.8261   -1.1892 C   0  0  0  0  0  0  0  0  0  0  0  0
    1.4421   -5.6048   -0.3905 C   0  0  0  0  0  0  0  0  0  0  0  0
    1.6851   -6.9538   -0.7080 C   0  0  0  0  0  0  0  0  0  0  0  0
    1.0833   -7.5235   -1.8288 C   0  0  0  0  0  0  0  0  0  0  0  0
    0.2326   -6.7760   -2.6138 C   0  0  0  0  0  0  0  0  0  0  0  0
   -0.0130   -5.4306   -2.2938 C   0  0  0  0  0  0  0  0  0  0  0  0
    3.1311    0.6868    0.9815 H   0  0  0  0  0  0  0  0  0  0  0  0
    3.2575   -0.6318   -0.1986 H   0  0  0  0  0  0  0  0  0  0  0  0
    2.7669   -0.9140    1.5050 H   0  0  0  0  0  0  0  0  0  0  0  0
    0.9014    3.2510    0.5485 H   0  0  0  0  0  0  0  0  0  0  0  0
    3.9896    3.6127   -2.5371 H   0  0  0  0  0  0  0  0  0  0  0  0
    5.2566    5.7389   -2.5764 H   0  0  0  0  0  0  0  0  0  0  0  0
    7.7571    6.0265   -0.1989 H   0  0  0  0  0  0  0  0  0  0  0  0
    8.4148    7.0357    1.1022 H   0  0  0  0  0  0  0  0  0  0  0  0
    8.0950    7.7226   -0.5404 H   0  0  0  0  0  0  0  0  0  0  0  0
    4.2975    6.0382    2.7127 H   0  0  0  0  0  0  0  0  0  0  0  0
    2.7899    4.3697    1.5538 H   0  0  0  0  0  0  0  0  0  0  0  0
   -1.2169    2.3291    0.0727 H   0  0  0  0  0  0  0  0  0  0  0  0
   -2.6394    0.3355   -0.1474 H   0  0  0  0  0  0  0  0  0  0  0  0
   -1.6491   -1.9086   -0.1952 H   0  0  0  0  0  0  0  0  0  0  0  0
   -0.3149   -3.0238   -1.5990 H   0  0  0  0  0  0  0  0  0  0  0  0
    1.9207   -5.2022    0.4954 H   0  0  0  0  0  0  0  0  0  0  0  0
    2.3533   -7.5357   -0.0801 H   0  0  0  0  0  0  0  0  0  0  0  0
    1.2874   -8.5751   -2.0702 H   0  0  0  0  0  0  0  0  0  0  0  0
   -0.2356   -7.2218   -3.4857 H   0  0  0  0  0  0  0  0  0  0  0  0
   -0.6797   -4.8653   -2.9356 H   0  0  0  0  0  0  0  0  0  0  0  0
  1  2  1  0  0  0  0
  1 33  1  0  0  0  0
  1 34  1  0  0  0  0
  1 35  1  0  0  0  0
  2  3  2  0  0  0  0
  2 23  1  0  0  0  0
  3  4  1  0  0  0  0
  3 20  1  0  0  0  0
  4  5  1  0  0  0  0
  4 36  1  0  0  0  0
  5  6  2  0  0  0  0
  5  7  1  0  0  0  0
  7  8  2  0  0  0  0
  7 19  1  0  0  0  0
  8  9  1  0  0  0  0
  8 37  1  0  0  0  0
  9 10  2  0  0  0  0
  9 38  1  0  0  0  0
 10 11  1  0  0  0  0
 10 18  1  0  0  0  0
 11 12  2  0  0  0  0
 11 13  1  0  0  0  0
 13 14  1  0  0  0  0
 13 15  1  0  0  0  0
 14 39  1  0  0  0  0
 14 40  1  0  0  0  0
 14 41  1  0  0  0  0
 15 16  2  0  0  0  0
 15 17  1  0  0  0  0
 17 18  1  0  0  0  0
 17 42  1  0  0  0  0
 18 19  2  0  0  0  0
 19 43  1  0  0  0  0
 20 21  2  0  0  0  0
 20 44  1  0  0  0  0
 21 22  1  0  0  0  0
 21 45  1  0  0  0  0
 22 23  2  0  0  0  0
 22 46  1  0  0  0  0
 23 24  1  0  0  0  0
 24 25  2  0  0  0  0
 24 26  1  0  0  0  0
 26 27  1  0  0  0  0
 26 47  1  0  0  0  0
 27 28  2  0  0  0  0
 27 32  1  0  0  0  0
 28 29  1  0  0  0  0
 28 48  1  0  0  0  0
 29 30  2  0  0  0  0
 29 49  1  0  0  0  0
 30 31  1  0  0  0  0
 30 50  1  0  0  0  0
 31 32  2  0  0  0  0
 31 51  1  0  0  0  0
 32 52  1  0  0  0  0
M  END
$$$$
