
 OpenBabel01122422473D

 40 43  0  0  0  0  0  0  0  0999 V2000
    1.0238    0.0162   -0.1197 O   0  0  0  0  0  0  0  0  0  0  0  0
    2.2494   -0.0708   -0.0802 C   0  0  0  0  0  0  0  0  0  0  0  0
    2.9830    1.2049   -0.0762 C   0  0  0  0  0  0  0  0  0  0  0  0
    4.3757    1.2215   -0.1577 C   0  0  0  0  0  0  0  0  0  0  0  0
    5.0235    2.4567   -0.3024 C   0  0  0  0  0  0  0  0  0  0  0  0
    4.3044    3.6440   -0.2049 C   0  0  0  0  0  0  0  0  0  0  0  0
    4.9641    4.8090   -0.2388 F   0  0  0  0  0  0  0  0  0  0  0  0
    2.9275    3.6224   -0.0583 C   0  0  0  0  0  0  0  0  0  0  0  0
    2.2377    4.7683    0.0299 F   0  0  0  0  0  0  0  0  0  0  0  0
    2.2559    2.4113   -0.0279 C   0  0  0  0  0  0  0  0  0  0  0  0
    5.0650   -0.0968   -0.0867 C   0  0  0  0  0  0  0  0  0  0  0  0
    6.5666   -0.2070   -0.0082 C   0  0  0  0  0  0  0  0  0  0  0  0
    7.3560    0.7200    0.6860 C   0  0  0  0  0  0  0  0  0  0  0  0
    8.7505    0.6388    0.6527 C   0  0  0  0  0  0  0  0  0  0  0  0
    9.3698   -0.4265    0.0070 C   0  0  0  0  0  0  0  0  0  0  0  0
    8.5947   -1.4142   -0.5973 C   0  0  0  0  0  0  0  0  0  0  0  0
    7.2000   -1.3020   -0.6137 C   0  0  0  0  0  0  0  0  0  0  0  0
    4.4025   -1.2179   -0.0728 N   0  0  0  0  0  0  0  0  0  0  0  0
    3.0239   -1.2325   -0.0821 N   0  0  0  0  0  0  0  0  0  0  0  0
    2.4078   -2.5328    0.0099 C   0  0  0  0  0  0  0  0  0  0  0  0
    3.1373   -3.7165   -0.1769 C   0  0  0  0  0  0  0  0  0  0  0  0
    4.4364   -3.7064   -0.5167 F   0  0  0  0  0  0  0  0  0  0  0  0
    2.5086   -4.9621   -0.0381 C   0  0  0  0  0  0  0  0  0  0  0  0
    3.2646   -6.2418   -0.2381 C   0  0  0  0  0  0  0  0  0  0  0  0
    3.1569   -7.0616    0.9209 O   0  0  0  0  0  0  0  0  0  0  0  0
    1.1476   -4.9975    0.2692 C   0  0  0  0  0  0  0  0  0  0  0  0
    0.4843   -3.7998    0.4311 C   0  0  0  0  0  0  0  0  0  0  0  0
    1.0821   -2.5982    0.3102 N   0  0  0  0  0  0  0  0  0  0  0  0
    6.0890    2.5471   -0.4823 H   0  0  0  0  0  0  0  0  0  0  0  0
    1.1709    2.4085    0.0385 H   0  0  0  0  0  0  0  0  0  0  0  0
    6.9121    1.5209    1.2693 H   0  0  0  0  0  0  0  0  0  0  0  0
    9.3512    1.4032    1.1404 H   0  0  0  0  0  0  0  0  0  0  0  0
   10.4549   -0.4979   -0.0059 H   0  0  0  0  0  0  0  0  0  0  0  0
    9.0764   -2.2722   -1.0600 H   0  0  0  0  0  0  0  0  0  0  0  0
    6.6143   -2.0809   -1.0985 H   0  0  0  0  0  0  0  0  0  0  0  0
    4.3267   -6.0687   -0.4314 H   0  0  0  0  0  0  0  0  0  0  0  0
    2.8529   -6.7930   -1.0907 H   0  0  0  0  0  0  0  0  0  0  0  0
    3.2013   -6.4764    1.6968 H   0  0  0  0  0  0  0  0  0  0  0  0
    0.6189   -5.9382    0.3810 H   0  0  0  0  0  0  0  0  0  0  0  0
   -0.5745   -3.7670    0.6729 H   0  0  0  0  0  0  0  0  0  0  0  0
  1  2  2  0  0  0  0
  2  3  1  0  0  0  0
  2 19  1  0  0  0  0
  3  4  2  0  0  0  0
  3 10  1  0  0  0  0
  4  5  1  0  0  0  0
  4 11  1  0  0  0  0
  5  6  2  0  0  0  0
  5 29  1  0  0  0  0
  6  7  1  0  0  0  0
  6  8  1  0  0  0  0
  8  9  1  0  0  0  0
  8 10  2  0  0  0  0
 10 30  1  0  0  0  0
 11 12  1  0  0  0  0
 11 18  2  0  0  0  0
 12 13  2  0  0  0  0
 12 17  1  0  0  0  0
 13 14  1  0  0  0  0
 13 31  1  0  0  0  0
 14 15  2  0  0  0  0
 14 32  1  0  0  0  0
 15 16  1  0  0  0  0
 15 33  1  0  0  0  0
 16 17  2  0  0  0  0
 16 34  1  0  0  0  0
 17 35  1  0  0  0  0
 18 19  1  0  0  0  0
 19 20  1  0  0  0  0
 20 21  2  0  0  0  0
 20 28  1  0  0  0  0
 21 22  1  0  0  0  0
 21 23  1  0  0  0  0
 23 24  1  0  0  0  0
 23 26  2  0  0  0  0
 24 25  1  0  0  0  0
 24 36  1  0  0  0  0
 24 37  1  0  0  0  0
 25 38  1  0  0  0  0
 26 27  1  0  0  0  0
 26 39  1  0  0  0  0
 27 28  2  0  0  0  0
 27 40  1  0  0  0  0
M  END
$$$$
