
 OpenBabel01122422473D

 46 49  0  0  0  0  0  0  0  0999 V2000
    1.2375   -0.4086    1.1582 O   0  0  0  0  0  0  0  0  0  0  0  0
    2.3454   -0.1970    0.6830 C   0  0  0  0  0  0  0  0  0  0  0  0
    2.9954    1.0145    0.8009 N   0  0  0  0  0  0  0  0  0  0  0  0
    2.3179    2.1488    1.3810 C   0  0  0  0  0  0  0  0  0  0  0  0
    3.2616    3.1534    1.9939 C   0  0  0  0  0  0  0  0  0  0  0  0
    3.2832    4.4801    1.5405 C   0  0  0  0  0  0  0  0  0  0  0  0
    4.0776    5.4401    2.1777 C   0  0  0  0  0  0  0  0  0  0  0  0
    4.8631    5.0916    3.2821 C   0  0  0  0  0  0  0  0  0  0  0  0
    5.6749    6.1120    3.9682 C   0  0  0  0  0  0  0  0  0  0  0  0
    5.1268    6.7947    4.9912 C   0  0  0  0  0  0  0  0  0  0  0  0
    5.8413    7.7628    5.6598 N   0  0  0  0  0  0  0  0  0  0  0  0
    7.1330    8.1143    5.3518 C   0  0  0  0  0  0  0  0  0  0  0  0
    7.7491    8.9831    5.9555 O   0  0  0  0  0  0  0  0  0  0  0  0
    7.7509    7.3687    4.2267 C   0  0  0  0  0  0  0  0  0  0  0  0
    7.0436    6.4265    3.5857 C   0  0  0  0  0  0  0  0  0  0  0  0
    4.8611    3.7646    3.7267 C   0  0  0  0  0  0  0  0  0  0  0  0
    4.0674    2.8040    3.0879 C   0  0  0  0  0  0  0  0  0  0  0  0
    3.0478   -1.2172   -0.0642 C   0  0  0  0  0  0  0  0  0  0  0  0
    4.2801   -1.1512   -0.6600 C   0  0  0  0  0  0  0  0  0  0  0  0
    5.0589   -0.1020   -0.6267 F   0  0  0  0  0  0  0  0  0  0  0  0
    4.5322   -2.3575   -1.2794 N   0  0  0  0  0  0  0  0  0  0  0  0
    5.6888   -2.7291   -2.0154 C   0  0  0  0  0  0  0  0  0  0  0  0
    6.7471   -1.8244   -2.1891 C   0  0  0  0  0  0  0  0  0  0  0  0
    7.9004   -2.2123   -2.8680 C   0  0  0  0  0  0  0  0  0  0  0  0
    8.0027   -3.4975   -3.3920 C   0  0  0  0  0  0  0  0  0  0  0  0
    6.9452   -4.3955   -3.2489 C   0  0  0  0  0  0  0  0  0  0  0  0
    5.7894   -4.0168   -2.5617 C   0  0  0  0  0  0  0  0  0  0  0  0
    3.4988   -3.2237   -1.0852 N   0  0  0  0  0  0  0  0  0  0  0  0
    2.6207   -2.5314   -0.3512 C   0  0  0  0  0  0  0  0  0  0  0  0
    3.8338    1.1824    0.2582 H   0  0  0  0  0  0  0  0  0  0  0  0
    1.6096    1.8130    2.1464 H   0  0  0  0  0  0  0  0  0  0  0  0
    1.7311    2.6078    0.5772 H   0  0  0  0  0  0  0  0  0  0  0  0
    2.6616    4.7864    0.7013 H   0  0  0  0  0  0  0  0  0  0  0  0
    4.0631    6.4670    1.8179 H   0  0  0  0  0  0  0  0  0  0  0  0
    4.1119    6.6267    5.3404 H   0  0  0  0  0  0  0  0  0  0  0  0
    5.4173    8.2714    6.4245 H   0  0  0  0  0  0  0  0  0  0  0  0
    8.7684    7.6273    3.9663 H   0  0  0  0  0  0  0  0  0  0  0  0
    7.4819    5.8723    2.7602 H   0  0  0  0  0  0  0  0  0  0  0  0
    5.4621    3.4735    4.5859 H   0  0  0  0  0  0  0  0  0  0  0  0
    4.0604    1.7835    3.4672 H   0  0  0  0  0  0  0  0  0  0  0  0
    6.7136   -0.8109   -1.8055 H   0  0  0  0  0  0  0  0  0  0  0  0
    8.7202   -1.5075   -2.9805 H   0  0  0  0  0  0  0  0  0  0  0  0
    8.9081   -3.7980   -3.9119 H   0  0  0  0  0  0  0  0  0  0  0  0
    7.0249   -5.3960   -3.6670 H   0  0  0  0  0  0  0  0  0  0  0  0
    4.9798   -4.7384   -2.4566 H   0  0  0  0  0  0  0  0  0  0  0  0
    1.6954   -3.0093   -0.0489 H   0  0  0  0  0  0  0  0  0  0  0  0
  1  2  2  0  0  0  0
  2  3  1  0  0  0  0
  2 18  1  0  0  0  0
  3  4  1  0  0  0  0
  3 30  1  0  0  0  0
  4  5  1  0  0  0  0
  4 31  1  0  0  0  0
  4 32  1  0  0  0  0
  5  6  2  0  0  0  0
  5 17  1  0  0  0  0
  6  7  1  0  0  0  0
  6 33  1  0  0  0  0
  7  8  2  0  0  0  0
  7 34  1  0  0  0  0
  8  9  1  0  0  0  0
  8 16  1  0  0  0  0
  9 10  2  0  0  0  0
  9 15  1  0  0  0  0
 10 11  1  0  0  0  0
 10 35  1  0  0  0  0
 11 12  1  0  0  0  0
 11 36  1  0  0  0  0
 12 13  2  0  0  0  0
 12 14  1  0  0  0  0
 14 15  2  0  0  0  0
 14 37  1  0  0  0  0
 15 38  1  0  0  0  0
 16 17  2  0  0  0  0
 16 39  1  0  0  0  0
 17 40  1  0  0  0  0
 18 19  2  0  0  0  0
 18 29  1  0  0  0  0
 19 20  1  0  0  0  0
 19 21  1  0  0  0  0
 21 22  1  0  0  0  0
 21 28  1  0  0  0  0
 22 23  2  0  0  0  0
 22 27  1  0  0  0  0
 23 24  1  0  0  0  0
 23 41  1  0  0  0  0
 24 25  2  0  0  0  0
 24 42  1  0  0  0  0
 25 26  1  0  0  0  0
 25 43  1  0  0  0  0
 26 27  2  0  0  0  0
 26 44  1  0  0  0  0
 27 45  1  0  0  0  0
 28 29  2  0  0  0  0
 29 46  1  0  0  0  0
M  END
$$$$
