
 OpenBabel01122422453D

 45 48  0  0  0  0  0  0  0  0999 V2000
    1.0319   -0.0269   -0.8559 O   0  0  0  0  0  0  0  0  0  0  0  0
    2.1547   -0.0793   -0.3705 C   0  0  0  0  0  0  0  0  0  0  0  0
    2.7343   -1.1996    0.1916 N   0  0  0  0  0  0  0  0  0  0  0  0
    2.1351   -2.4443    0.2062 C   0  0  0  0  0  0  0  0  0  0  0  0
    2.2067   -3.3042    1.2808 C   0  0  0  0  0  0  0  0  0  0  0  0
    2.9133   -3.1347    2.5591 C   0  0  0  0  0  0  0  0  0  0  0  0
    3.7142   -4.1927    2.8334 F   0  0  0  0  0  0  0  0  0  0  0  0
    3.7413   -2.0476    2.5014 F   0  0  0  0  0  0  0  0  0  0  0  0
    1.4497   -4.4088    0.9429 N   0  0  0  0  0  0  0  0  0  0  0  0
    0.9813   -5.4850    1.7497 C   0  0  0  0  0  0  0  0  0  0  0  0
    0.6785   -5.3062    3.1043 C   0  0  0  0  0  0  0  0  0  0  0  0
    0.2074   -6.3939    3.8151 C   0  0  0  0  0  0  0  0  0  0  0  0
    0.0210   -7.6181    3.2843 N   0  0  0  0  0  0  0  0  0  0  0  0
    0.2972   -7.7566    1.9699 C   0  0  0  0  0  0  0  0  0  0  0  0
    0.7534   -6.7290    1.1679 C   0  0  0  0  0  0  0  0  0  0  0  0
    1.0855   -4.3695   -0.3700 N   0  0  0  0  0  0  0  0  0  0  0  0
    1.4004   -3.1341   -0.7691 C   0  0  0  0  0  0  0  0  0  0  0  0
    3.0026    1.1483   -0.1912 C   0  0  0  0  0  0  0  0  0  0  0  0
    2.4119    2.3298    0.0649 C   0  0  0  0  0  0  0  0  0  0  0  0
    3.1559    3.4877    0.3158 N   0  0  0  0  0  0  0  0  0  0  0  0
    2.5163    4.7321    0.6228 C   0  0  0  0  0  0  0  0  0  0  0  0
    1.4799    5.2237   -0.1840 C   0  0  0  0  0  0  0  0  0  0  0  0
    0.9285    6.4837    0.0732 C   0  0  0  0  0  0  0  0  0  0  0  0
    1.3785    7.2270    1.1595 C   0  0  0  0  0  0  0  0  0  0  0  0
    0.8498    8.4339    1.4000 F   0  0  0  0  0  0  0  0  0  0  0  0
    2.3745    6.7396    1.9936 C   0  0  0  0  0  0  0  0  0  0  0  0
    2.9515    5.4992    1.7172 C   0  0  0  0  0  0  0  0  0  0  0  0
    4.5644    3.4746    0.2672 C   0  0  0  0  0  0  0  0  0  0  0  0
    5.3132    4.4341    0.4391 O   0  0  0  0  0  0  0  0  0  0  0  0
    5.1925    2.1735   -0.0766 C   0  0  0  0  0  0  0  0  0  0  0  0
    4.4454    1.0868   -0.2929 C   0  0  0  0  0  0  0  0  0  0  0  0
    3.4712   -1.0552    0.8774 H   0  0  0  0  0  0  0  0  0  0  0  0
    2.2403   -2.9612    3.3991 H   0  0  0  0  0  0  0  0  0  0  0  0
    0.7183   -4.3478    3.6026 H   0  0  0  0  0  0  0  0  0  0  0  0
   -0.0710   -6.2979    4.8629 H   0  0  0  0  0  0  0  0  0  0  0  0
    0.1289   -8.7522    1.5673 H   0  0  0  0  0  0  0  0  0  0  0  0
    0.9600   -6.9151    0.1132 H   0  0  0  0  0  0  0  0  0  0  0  0
    1.1449   -2.8254   -1.7757 H   0  0  0  0  0  0  0  0  0  0  0  0
    1.3310    2.4151    0.1547 H   0  0  0  0  0  0  0  0  0  0  0  0
    1.1466    4.6725   -1.0594 H   0  0  0  0  0  0  0  0  0  0  0  0
    0.1667    6.9005   -0.5783 H   0  0  0  0  0  0  0  0  0  0  0  0
    2.7091    7.3290    2.8410 H   0  0  0  0  0  0  0  0  0  0  0  0
    3.7404    5.1318    2.3699 H   0  0  0  0  0  0  0  0  0  0  0  0
    6.2720    2.1688   -0.1643 H   0  0  0  0  0  0  0  0  0  0  0  0
    4.9204    0.1528   -0.5755 H   0  0  0  0  0  0  0  0  0  0  0  0
  1  2  2  0  0  0  0
  2  3  1  0  0  0  0
  2 18  1  0  0  0  0
  3  4  1  0  0  0  0
  3 32  1  0  0  0  0
  4  5  2  0  0  0  0
  4 17  1  0  0  0  0
  5  6  1  0  0  0  0
  5  9  1  0  0  0  0
  6  7  1  0  0  0  0
  6  8  1  0  0  0  0
  6 33  1  0  0  0  0
  9 10  1  0  0  0  0
  9 16  1  0  0  0  0
 10 11  2  0  0  0  0
 10 15  1  0  0  0  0
 11 12  1  0  0  0  0
 11 34  1  0  0  0  0
 12 13  2  0  0  0  0
 12 35  1  0  0  0  0
 13 14  1  0  0  0  0
 14 15  2  0  0  0  0
 14 36  1  0  0  0  0
 15 37  1  0  0  0  0
 16 17  2  0  0  0  0
 17 38  1  0  0  0  0
 18 19  2  0  0  0  0
 18 31  1  0  0  0  0
 19 20  1  0  0  0  0
 19 39  1  0  0  0  0
 20 21  1  0  0  0  0
 20 28  1  0  0  0  0
 21 22  2  0  0  0  0
 21 27  1  0  0  0  0
 22 23  1  0  0  0  0
 22 40  1  0  0  0  0
 23 24  2  0  0  0  0
 23 41  1  0  0  0  0
 24 25  1  0  0  0  0
 24 26  1  0  0  0  0
 26 27  2  0  0  0  0
 26 42  1  0  0  0  0
 27 43  1  0  0  0  0
 28 29  2  0  0  0  0
 28 30  1  0  0  0  0
 30 31  2  0  0  0  0
 30 44  1  0  0  0  0
 31 45  1  0  0  0  0
M  END
$$$$
