
 OpenBabel01122422453D

 48 51  0  0  0  0  0  0  0  0999 V2000
    4.0848   -1.3020   -0.6539 C   0  0  0  0  0  0  0  0  0  0  0  0
    3.2041   -0.7903    0.3439 O   0  0  0  0  0  0  0  0  0  0  0  0
    3.5784    0.3855    0.9548 C   0  0  0  0  0  0  0  0  0  0  0  0
    4.1189    1.4989    0.2988 C   0  0  0  0  0  0  0  0  0  0  0  0
    4.1626    1.6321   -1.1671 C   0  0  0  0  0  0  0  0  0  0  0  0
    3.1283    1.4013   -1.7801 O   0  0  0  0  0  0  0  0  0  0  0  0
    5.3834    1.9931   -1.7211 N   0  0  0  0  0  0  0  0  0  0  0  0
    5.6785    2.0090   -3.1103 C   0  0  0  0  0  0  0  0  0  0  0  0
    4.7569    1.7192   -4.1132 C   0  0  0  0  0  0  0  0  0  0  0  0
    5.1595    1.6675   -5.4555 C   0  0  0  0  0  0  0  0  0  0  0  0
    6.4850    1.9203   -5.7789 C   0  0  0  0  0  0  0  0  0  0  0  0
    6.8684    1.8156   -7.1289 N   0  0  0  0  0  0  0  0  0  0  0  0
    8.1652    2.0014   -7.5764 C   0  0  0  0  0  0  0  0  0  0  0  0
    9.1364    2.2574   -6.8752 O   0  0  0  0  0  0  0  0  0  0  0  0
    8.4125    1.8596   -9.0419 C   0  0  0  0  0  0  0  0  0  0  0  0
    7.4377    2.0542  -10.0272 C   0  0  0  0  0  0  0  0  0  0  0  0
    7.7924    1.9943  -11.3814 C   0  0  0  0  0  0  0  0  0  0  0  0
    9.1139    1.7447  -11.7570 C   0  0  0  0  0  0  0  0  0  0  0  0
   10.0863    1.5385  -10.7841 C   0  0  0  0  0  0  0  0  0  0  0  0
    9.7356    1.5932   -9.4357 C   0  0  0  0  0  0  0  0  0  0  0  0
    7.3794    2.2464   -4.8285 N   0  0  0  0  0  0  0  0  0  0  0  0
    6.9717    2.2839   -3.5355 C   0  0  0  0  0  0  0  0  0  0  0  0
    4.4405    2.6070    1.0643 C   0  0  0  0  0  0  0  0  0  0  0  0
    4.2581    2.6843    2.4031 N   0  0  0  0  0  0  0  0  0  0  0  0
    3.6755    1.6450    3.0238 C   0  0  0  0  0  0  0  0  0  0  0  0
    3.4068    1.7515    4.3830 C   0  0  0  0  0  0  0  0  0  0  0  0
    2.7935    0.7215    5.1005 C   0  0  0  0  0  0  0  0  0  0  0  0
    2.4392   -0.4511    4.4496 C   0  0  0  0  0  0  0  0  0  0  0  0
    2.6974   -0.5828    3.0850 C   0  0  0  0  0  0  0  0  0  0  0  0
    3.3133    0.4591    2.3480 C   0  0  0  0  0  0  0  0  0  0  0  0
    4.0412   -2.3946   -0.6099 H   0  0  0  0  0  0  0  0  0  0  0  0
    5.1272   -1.0047   -0.4965 H   0  0  0  0  0  0  0  0  0  0  0  0
    3.7409   -1.0093   -1.6493 H   0  0  0  0  0  0  0  0  0  0  0  0
    6.1643    2.1722   -1.0978 H   0  0  0  0  0  0  0  0  0  0  0  0
    3.7150    1.5184   -3.8980 H   0  0  0  0  0  0  0  0  0  0  0  0
    4.4250    1.4185   -6.2126 H   0  0  0  0  0  0  0  0  0  0  0  0
    6.1600    1.5237   -7.7822 H   0  0  0  0  0  0  0  0  0  0  0  0
    6.4099    2.2971   -9.7758 H   0  0  0  0  0  0  0  0  0  0  0  0
    7.0433    2.1675  -12.1512 H   0  0  0  0  0  0  0  0  0  0  0  0
    9.3912    1.7253  -12.8082 H   0  0  0  0  0  0  0  0  0  0  0  0
   11.1199    1.3546  -11.0653 H   0  0  0  0  0  0  0  0  0  0  0  0
   10.5081    1.4480   -8.6814 H   0  0  0  0  0  0  0  0  0  0  0  0
    7.7670    2.5375   -2.8404 H   0  0  0  0  0  0  0  0  0  0  0  0
    4.8256    3.5192    0.6157 H   0  0  0  0  0  0  0  0  0  0  0  0
    3.6721    2.6716    4.8990 H   0  0  0  0  0  0  0  0  0  0  0  0
    2.5921    0.8435    6.1618 H   0  0  0  0  0  0  0  0  0  0  0  0
    1.9574   -1.2581    4.9965 H   0  0  0  0  0  0  0  0  0  0  0  0
    2.4005   -1.5037    2.5862 H   0  0  0  0  0  0  0  0  0  0  0  0
  1  2  1  0  0  0  0
  1 31  1  0  0  0  0
  1 32  1  0  0  0  0
  1 33  1  0  0  0  0
  2  3  1  0  0  0  0
  3  4  2  0  0  0  0
  3 30  1  0  0  0  0
  4  5  1  0  0  0  0
  4 23  1  0  0  0  0
  5  6  2  0  0  0  0
  5  7  1  0  0  0  0
  7  8  1  0  0  0  0
  7 34  1  0  0  0  0
  8  9  2  0  0  0  0
  8 22  1  0  0  0  0
  9 10  1  0  0  0  0
  9 35  1  0  0  0  0
 10 11  2  0  0  0  0
 10 36  1  0  0  0  0
 11 12  1  0  0  0  0
 11 21  1  0  0  0  0
 12 13  1  0  0  0  0
 12 37  1  0  0  0  0
 13 14  2  0  0  0  0
 13 15  1  0  0  0  0
 15 16  2  0  0  0  0
 15 20  1  0  0  0  0
 16 17  1  0  0  0  0
 16 38  1  0  0  0  0
 17 18  2  0  0  0  0
 17 39  1  0  0  0  0
 18 19  1  0  0  0  0
 18 40  1  0  0  0  0
 19 20  2  0  0  0  0
 19 41  1  0  0  0  0
 20 42  1  0  0  0  0
 21 22  2  0  0  0  0
 22 43  1  0  0  0  0
 23 24  2  0  0  0  0
 23 44  1  0  0  0  0
 24 25  1  0  0  0  0
 25 26  2  0  0  0  0
 25 30  1  0  0  0  0
 26 27  1  0  0  0  0
 26 45  1  0  0  0  0
 27 28  2  0  0  0  0
 27 46  1  0  0  0  0
 28 29  1  0  0  0  0
 28 47  1  0  0  0  0
 29 30  2  0  0  0  0
 29 48  1  0  0  0  0
M  END
$$$$
