
 OpenBabel01122422473D

 47 50  0  0  0  0  0  0  0  0999 V2000
    7.0865    2.1174   -2.5395 C   0  0  0  0  0  0  0  0  0  0  0  0
    6.1373    1.0664   -2.7066 O   0  0  0  0  0  0  0  0  0  0  0  0
    4.8565    1.3407   -2.2890 C   0  0  0  0  0  0  0  0  0  0  0  0
    4.3067    2.6291   -2.4267 C   0  0  0  0  0  0  0  0  0  0  0  0
    2.9864    2.8791   -2.0653 C   0  0  0  0  0  0  0  0  0  0  0  0
    2.2167    1.8447   -1.5656 C   0  0  0  0  0  0  0  0  0  0  0  0
    0.9428    2.0755   -1.2236 F   0  0  0  0  0  0  0  0  0  0  0  0
    2.7429    0.5637   -1.4236 C   0  0  0  0  0  0  0  0  0  0  0  0
    4.0730    0.2650   -1.7948 C   0  0  0  0  0  0  0  0  0  0  0  0
    4.5759   -1.1308   -1.6469 C   0  0  0  0  0  0  0  0  0  0  0  0
    5.8950   -1.4353   -1.2970 C   0  0  0  0  0  0  0  0  0  0  0  0
    6.4053   -2.6857   -1.1441 N   0  0  0  0  0  0  0  0  0  0  0  0
    5.5515   -3.7128   -1.3246 C   0  0  0  0  0  0  0  0  0  0  0  0
    4.2125   -3.5547   -1.6505 C   0  0  0  0  0  0  0  0  0  0  0  0
    3.3178   -4.7499   -1.8064 C   0  0  0  0  0  0  0  0  0  0  0  0
    3.3241   -5.4723   -0.5744 O   0  0  0  0  0  0  0  0  0  0  0  0
    2.5887   -6.6219   -0.5255 C   0  0  0  0  0  0  0  0  0  0  0  0
    1.8111   -7.1402   -1.5559 C   0  0  0  0  0  0  0  0  0  0  0  0
    1.1083   -8.3394   -1.3755 C   0  0  0  0  0  0  0  0  0  0  0  0
    1.1526   -9.0375   -0.1616 C   0  0  0  0  0  0  0  0  0  0  0  0
    0.4278  -10.2427    0.0254 N   0  0  0  0  0  0  0  0  0  0  0  0
    0.1378  -10.8769    1.2268 C   0  0  0  0  0  0  0  0  0  0  0  0
   -0.5667  -11.9902    0.9938 C   0  0  0  0  0  0  0  0  0  0  0  0
   -0.7470  -12.1186   -0.3529 N   0  0  0  0  0  0  0  0  0  0  0  0
   -0.1400  -11.0406   -1.0237 C   0  0  0  0  0  0  0  0  0  0  0  0
   -0.1270  -10.9038   -2.2354 O   0  0  0  0  0  0  0  0  0  0  0  0
    1.9326   -8.4985    0.8700 C   0  0  0  0  0  0  0  0  0  0  0  0
    2.6479   -7.3082    0.6859 C   0  0  0  0  0  0  0  0  0  0  0  0
    3.7398   -2.2455   -1.8261 C   0  0  0  0  0  0  0  0  0  0  0  0
    8.0850    1.6892   -2.6694 H   0  0  0  0  0  0  0  0  0  0  0  0
    7.0355    2.5492   -1.5338 H   0  0  0  0  0  0  0  0  0  0  0  0
    6.9572    2.8874   -3.3059 H   0  0  0  0  0  0  0  0  0  0  0  0
    4.8828    3.4486   -2.8429 H   0  0  0  0  0  0  0  0  0  0  0  0
    2.5549    3.8681   -2.1801 H   0  0  0  0  0  0  0  0  0  0  0  0
    2.0872   -0.1974   -1.0088 H   0  0  0  0  0  0  0  0  0  0  0  0
    6.6237   -0.6549   -1.0992 H   0  0  0  0  0  0  0  0  0  0  0  0
    5.9860   -4.7001   -1.1873 H   0  0  0  0  0  0  0  0  0  0  0  0
    3.6996   -5.3717   -2.6263 H   0  0  0  0  0  0  0  0  0  0  0  0
    2.2963   -4.4241   -2.0380 H   0  0  0  0  0  0  0  0  0  0  0  0
    1.7173   -6.6449   -2.5159 H   0  0  0  0  0  0  0  0  0  0  0  0
    0.5034   -8.6903   -2.2069 H   0  0  0  0  0  0  0  0  0  0  0  0
    0.4271  -10.4788    2.1859 H   0  0  0  0  0  0  0  0  0  0  0  0
   -0.9646  -12.7050    1.6972 H   0  0  0  0  0  0  0  0  0  0  0  0
   -1.2272  -12.8606   -0.8385 H   0  0  0  0  0  0  0  0  0  0  0  0
    2.0327   -9.0008    1.8264 H   0  0  0  0  0  0  0  0  0  0  0  0
    3.2603   -6.9185    1.4965 H   0  0  0  0  0  0  0  0  0  0  0  0
    2.6967   -2.1055   -2.1048 H   0  0  0  0  0  0  0  0  0  0  0  0
  1  2  1  0  0  0  0
  1 30  1  0  0  0  0
  1 31  1  0  0  0  0
  1 32  1  0  0  0  0
  2  3  1  0  0  0  0
  3  4  2  0  0  0  0
  3  9  1  0  0  0  0
  4  5  1  0  0  0  0
  4 33  1  0  0  0  0
  5  6  2  0  0  0  0
  5 34  1  0  0  0  0
  6  7  1  0  0  0  0
  6  8  1  0  0  0  0
  8  9  2  0  0  0  0
  8 35  1  0  0  0  0
  9 10  1  0  0  0  0
 10 11  2  0  0  0  0
 10 29  1  0  0  0  0
 11 12  1  0  0  0  0
 11 36  1  0  0  0  0
 12 13  2  0  0  0  0
 13 14  1  0  0  0  0
 13 37  1  0  0  0  0
 14 15  1  0  0  0  0
 14 29  2  0  0  0  0
 15 16  1  0  0  0  0
 15 38  1  0  0  0  0
 15 39  1  0  0  0  0
 16 17  1  0  0  0  0
 17 18  2  0  0  0  0
 17 28  1  0  0  0  0
 18 19  1  0  0  0  0
 18 40  1  0  0  0  0
 19 20  2  0  0  0  0
 19 41  1  0  0  0  0
 20 21  1  0  0  0  0
 20 27  1  0  0  0  0
 21 22  1  0  0  0  0
 21 25  1  0  0  0  0
 22 23  2  0  0  0  0
 22 42  1  0  0  0  0
 23 24  1  0  0  0  0
 23 43  1  0  0  0  0
 24 25  1  0  0  0  0
 24 44  1  0  0  0  0
 25 26  2  0  0  0  0
 27 28  2  0  0  0  0
 27 45  1  0  0  0  0
 28 46  1  0  0  0  0
 29 47  1  0  0  0  0
M  END
$$$$
