
 OpenBabel01122422473D

 48 51  0  0  0  0  0  0  0  0999 V2000
    2.7019   -0.5792   -0.9625 O   0  0  0  0  0  0  0  0  0  0  0  0
    2.2606    0.0144    0.0188 C   0  0  0  0  0  0  0  0  0  0  0  0
    0.7608    0.0872    0.2547 C   0  0  0  0  0  0  0  0  0  0  0  0
    0.1423   -1.0909    0.9909 C   0  0  0  0  0  0  0  0  0  0  0  0
   -0.4757   -0.8146    2.2260 C   0  0  0  0  0  0  0  0  0  0  0  0
   -1.1259   -1.8126    2.9444 C   0  0  0  0  0  0  0  0  0  0  0  0
   -1.1570   -3.1089    2.4431 C   0  0  0  0  0  0  0  0  0  0  0  0
   -1.8036   -4.0859    3.1586 O   0  0  0  0  0  0  0  0  0  0  0  0
   -0.5570   -3.4384    1.2140 C   0  0  0  0  0  0  0  0  0  0  0  0
   -0.6037   -4.7593    0.7149 C   0  0  0  0  0  0  0  0  0  0  0  0
   -0.0322   -5.1016   -0.5070 C   0  0  0  0  0  0  0  0  0  0  0  0
    0.5825   -4.1196   -1.2634 C   0  0  0  0  0  0  0  0  0  0  0  0
    0.6263   -2.8031   -0.7933 C   0  0  0  0  0  0  0  0  0  0  0  0
    0.0898   -2.4206    0.4603 C   0  0  0  0  0  0  0  0  0  0  0  0
    3.0390    0.6780    0.9605 N   0  0  0  0  0  0  0  0  0  0  0  0
    4.4406    0.8701    0.8544 C   0  0  0  0  0  0  0  0  0  0  0  0
    5.1266    0.7249   -0.3571 C   0  0  0  0  0  0  0  0  0  0  0  0
    6.5170    0.8408   -0.4469 C   0  0  0  0  0  0  0  0  0  0  0  0
    7.2147    0.6642   -1.6698 N   0  0  0  0  0  0  0  0  0  0  0  0
    6.6308    0.7510   -2.9280 C   0  0  0  0  0  0  0  0  0  0  0  0
    5.4913    1.1397   -3.1655 O   0  0  0  0  0  0  0  0  0  0  0  0
    7.4656    0.4306   -4.0980 C   0  0  0  0  0  0  0  0  0  0  0  0
    8.5602   -0.4029   -4.0962 C   0  0  0  0  0  0  0  0  0  0  0  0
    9.2850   -0.6865   -5.2061 N   0  0  0  0  0  0  0  0  0  0  0  0
    8.8602   -0.1189   -6.3477 C   0  0  0  0  0  0  0  0  0  0  0  0
    7.8004    0.6921   -6.4750 N   0  0  0  0  0  0  0  0  0  0  0  0
    7.1167    0.9427   -5.3349 C   0  0  0  0  0  0  0  0  0  0  0  0
    7.2388    1.1093    0.7162 C   0  0  0  0  0  0  0  0  0  0  0  0
    6.5644    1.3253    1.9246 C   0  0  0  0  0  0  0  0  0  0  0  0
    5.1691    1.2193    1.9918 C   0  0  0  0  0  0  0  0  0  0  0  0
    0.2686    0.1939   -0.7205 H   0  0  0  0  0  0  0  0  0  0  0  0
    0.5429    1.0257    0.7810 H   0  0  0  0  0  0  0  0  0  0  0  0
   -0.4803    0.1964    2.6284 H   0  0  0  0  0  0  0  0  0  0  0  0
   -1.6112   -1.5609    3.8819 H   0  0  0  0  0  0  0  0  0  0  0  0
   -2.1794   -3.6937    3.9622 H   0  0  0  0  0  0  0  0  0  0  0  0
   -1.1002   -5.5391    1.2901 H   0  0  0  0  0  0  0  0  0  0  0  0
   -0.0777   -6.1257   -0.8657 H   0  0  0  0  0  0  0  0  0  0  0  0
    1.0308   -4.3647   -2.2228 H   0  0  0  0  0  0  0  0  0  0  0  0
    1.0964   -2.0770   -1.4485 H   0  0  0  0  0  0  0  0  0  0  0  0
    2.6061    0.9157    1.8429 H   0  0  0  0  0  0  0  0  0  0  0  0
    4.5651    0.5035   -1.2549 H   0  0  0  0  0  0  0  0  0  0  0  0
    8.2218    0.6036   -1.6023 H   0  0  0  0  0  0  0  0  0  0  0  0
    8.8999   -0.9134   -3.2009 H   0  0  0  0  0  0  0  0  0  0  0  0
    9.4178   -0.3428   -7.2534 H   0  0  0  0  0  0  0  0  0  0  0  0
    6.2475    1.5843   -5.4538 H   0  0  0  0  0  0  0  0  0  0  0  0
    8.3220    1.1890    0.6975 H   0  0  0  0  0  0  0  0  0  0  0  0
    7.1306    1.5693    2.8209 H   0  0  0  0  0  0  0  0  0  0  0  0
    4.6758    1.3773    2.9467 H   0  0  0  0  0  0  0  0  0  0  0  0
  1  2  2  0  0  0  0
  2  3  1  0  0  0  0
  2 15  1  0  0  0  0
  3  4  1  0  0  0  0
  3 31  1  0  0  0  0
  3 32  1  0  0  0  0
  4  5  2  0  0  0  0
  4 14  1  0  0  0  0
  5  6  1  0  0  0  0
  5 33  1  0  0  0  0
  6  7  2  0  0  0  0
  6 34  1  0  0  0  0
  7  8  1  0  0  0  0
  7  9  1  0  0  0  0
  8 35  1  0  0  0  0
  9 10  2  0  0  0  0
  9 14  1  0  0  0  0
 10 11  1  0  0  0  0
 10 36  1  0  0  0  0
 11 12  2  0  0  0  0
 11 37  1  0  0  0  0
 12 13  1  0  0  0  0
 12 38  1  0  0  0  0
 13 14  2  0  0  0  0
 13 39  1  0  0  0  0
 15 16  1  0  0  0  0
 15 40  1  0  0  0  0
 16 17  2  0  0  0  0
 16 30  1  0  0  0  0
 17 18  1  0  0  0  0
 17 41  1  0  0  0  0
 18 19  1  0  0  0  0
 18 28  2  0  0  0  0
 19 20  1  0  0  0  0
 19 42  1  0  0  0  0
 20 21  2  0  0  0  0
 20 22  1  0  0  0  0
 22 23  2  0  0  0  0
 22 27  1  0  0  0  0
 23 24  1  0  0  0  0
 23 43  1  0  0  0  0
 24 25  2  0  0  0  0
 25 26  1  0  0  0  0
 25 44  1  0  0  0  0
 26 27  2  0  0  0  0
 27 45  1  0  0  0  0
 28 29  1  0  0  0  0
 28 46  1  0  0  0  0
 29 30  2  0  0  0  0
 29 47  1  0  0  0  0
 30 48  1  0  0  0  0
M  END
$$$$
