
 OpenBabel01122422473D

 43 46  0  0  0  0  0  0  0  0999 V2000
    0.9809   -0.3002    0.0434 O   0  0  0  0  0  0  0  0  0  0  0  0
    2.1976   -0.1362   -0.0451 C   0  0  0  0  0  0  0  0  0  0  0  0
    2.8527    1.0666    0.0680 N   0  0  0  0  0  0  0  0  0  0  0  0
    2.2838    2.3109    0.4535 C   0  0  0  0  0  0  0  0  0  0  0  0
    1.0148    2.3752    1.0517 C   0  0  0  0  0  0  0  0  0  0  0  0
    0.4502    3.5936    1.4254 C   0  0  0  0  0  0  0  0  0  0  0  0
    1.1602    4.7691    1.2365 C   0  0  0  0  0  0  0  0  0  0  0  0
    2.4323    4.7263    0.6631 C   0  0  0  0  0  0  0  0  0  0  0  0
    3.0123    3.5095    0.2488 C   0  0  0  0  0  0  0  0  0  0  0  0
    4.3029    3.5178   -0.4470 C   0  0  0  0  0  0  0  0  0  0  0  0
    5.0338    4.6289   -0.8168 C   0  0  0  0  0  0  0  0  0  0  0  0
    6.0893    4.1499   -1.5443 N   0  0  0  0  0  0  0  0  0  0  0  0
    5.9826    2.7902   -1.5783 C   0  0  0  0  0  0  0  0  0  0  0  0
    4.9374    2.3723   -0.9017 N   0  0  0  0  0  0  0  0  0  0  0  0
    3.0738   -1.3147   -0.3413 C   0  0  0  0  0  0  0  0  0  0  0  0
    2.4758   -2.3636   -0.9364 C   0  0  0  0  0  0  0  0  0  0  0  0
    3.1308   -3.5646   -1.1728 N   0  0  0  0  0  0  0  0  0  0  0  0
    2.4308   -4.6716   -1.7499 C   0  0  0  0  0  0  0  0  0  0  0  0
    2.9975   -5.3910   -2.8102 C   0  0  0  0  0  0  0  0  0  0  0  0
    2.3156   -6.4709   -3.3785 C   0  0  0  0  0  0  0  0  0  0  0  0
    1.0757   -6.8635   -2.8743 C   0  0  0  0  0  0  0  0  0  0  0  0
    0.5035   -6.1601   -1.8166 C   0  0  0  0  0  0  0  0  0  0  0  0
    1.1708   -5.0635   -1.2750 C   0  0  0  0  0  0  0  0  0  0  0  0
    0.6028   -4.4296   -0.2369 F   0  0  0  0  0  0  0  0  0  0  0  0
    4.4565   -3.7628   -0.7444 C   0  0  0  0  0  0  0  0  0  0  0  0
    5.1028   -4.8042   -0.8361 O   0  0  0  0  0  0  0  0  0  0  0  0
    5.1036   -2.5980   -0.0749 C   0  0  0  0  0  0  0  0  0  0  0  0
    4.4441   -1.4437    0.1012 C   0  0  0  0  0  0  0  0  0  0  0  0
    3.8114    1.1390   -0.2806 H   0  0  0  0  0  0  0  0  0  0  0  0
    0.4317    1.4803    1.2473 H   0  0  0  0  0  0  0  0  0  0  0  0
   -0.5446    3.6132    1.8626 H   0  0  0  0  0  0  0  0  0  0  0  0
    0.7220    5.7206    1.5252 H   0  0  0  0  0  0  0  0  0  0  0  0
    2.9521    5.6700    0.5272 H   0  0  0  0  0  0  0  0  0  0  0  0
    4.8902    5.6899   -0.6721 H   0  0  0  0  0  0  0  0  0  0  0  0
    6.8013    4.7025   -2.0019 H   0  0  0  0  0  0  0  0  0  0  0  0
    6.6842    2.1670   -2.1171 H   0  0  0  0  0  0  0  0  0  0  0  0
    1.4401   -2.3039   -1.2657 H   0  0  0  0  0  0  0  0  0  0  0  0
    3.9617   -5.0983   -3.2188 H   0  0  0  0  0  0  0  0  0  0  0  0
    2.7602   -7.0104   -4.2114 H   0  0  0  0  0  0  0  0  0  0  0  0
    0.5606   -7.7203   -3.3005 H   0  0  0  0  0  0  0  0  0  0  0  0
   -0.4512   -6.4641   -1.3989 H   0  0  0  0  0  0  0  0  0  0  0  0
    6.1144   -2.7529    0.2805 H   0  0  0  0  0  0  0  0  0  0  0  0
    4.9217   -0.6162    0.6125 H   0  0  0  0  0  0  0  0  0  0  0  0
  1  2  2  0  0  0  0
  2  3  1  0  0  0  0
  2 15  1  0  0  0  0
  3  4  1  0  0  0  0
  3 29  1  0  0  0  0
  4  5  2  0  0  0  0
  4  9  1  0  0  0  0
  5  6  1  0  0  0  0
  5 30  1  0  0  0  0
  6  7  2  0  0  0  0
  6 31  1  0  0  0  0
  7  8  1  0  0  0  0
  7 32  1  0  0  0  0
  8  9  2  0  0  0  0
  8 33  1  0  0  0  0
  9 10  1  0  0  0  0
 10 11  2  0  0  0  0
 10 14  1  0  0  0  0
 11 12  1  0  0  0  0
 11 34  1  0  0  0  0
 12 13  1  0  0  0  0
 12 35  1  0  0  0  0
 13 14  2  0  0  0  0
 13 36  1  0  0  0  0
 15 16  2  0  0  0  0
 15 28  1  0  0  0  0
 16 17  1  0  0  0  0
 16 37  1  0  0  0  0
 17 18  1  0  0  0  0
 17 25  1  0  0  0  0
 18 19  2  0  0  0  0
 18 23  1  0  0  0  0
 19 20  1  0  0  0  0
 19 38  1  0  0  0  0
 20 21  2  0  0  0  0
 20 39  1  0  0  0  0
 21 22  1  0  0  0  0
 21 40  1  0  0  0  0
 22 23  2  0  0  0  0
 22 41  1  0  0  0  0
 23 24  1  0  0  0  0
 25 26  2  0  0  0  0
 25 27  1  0  0  0  0
 27 28  2  0  0  0  0
 27 42  1  0  0  0  0
 28 43  1  0  0  0  0
M  END
$$$$
