
 OpenBabel01122422473D

 49 52  0  0  0  0  0  0  0  0999 V2000
    2.8579    1.4173   -0.6857 C   0  0  0  0  0  0  0  0  0  0  0  0
    4.0359    0.6013   -0.6538 N   0  0  0  0  0  0  0  0  0  0  0  0
    5.3395    1.0384   -0.5085 C   0  0  0  0  0  0  0  0  0  0  0  0
    5.6985    2.2006   -0.3975 O   0  0  0  0  0  0  0  0  0  0  0  0
    6.2295   -0.0452   -0.5020 O   0  0  0  0  0  0  0  0  0  0  0  0
    5.3823   -1.1336   -0.6369 C   0  0  0  0  0  0  0  0  0  0  0  0
    5.7698   -2.4546   -0.6725 C   0  0  0  0  0  0  0  0  0  0  0  0
    4.7656   -3.4325   -0.8069 C   0  0  0  0  0  0  0  0  0  0  0  0
    5.1469   -4.8893   -0.9105 C   0  0  0  0  0  0  0  0  0  0  0  0
    5.9048   -5.2997    0.2696 N   0  0  0  0  0  0  0  0  0  0  0  0
    6.7839   -6.3813    0.0908 C   0  0  0  0  0  0  0  0  0  0  0  0
    7.8755   -6.5018    0.9542 C   0  0  0  0  0  0  0  0  0  0  0  0
    8.7865   -7.5493    0.8084 C   0  0  0  0  0  0  0  0  0  0  0  0
    8.6017   -8.5055   -0.1916 C   0  0  0  0  0  0  0  0  0  0  0  0
    7.4904   -8.4366   -1.0410 C   0  0  0  0  0  0  0  0  0  0  0  0
    7.3327   -9.4062   -2.1864 C   0  0  0  0  0  0  0  0  0  0  0  0
    5.8273  -10.3635   -2.0245 S   0  0  0  0  0  0  0  0  0  0  0  0
    5.8863  -11.1087   -0.7772 O   0  0  0  0  0  0  0  0  0  0  0  0
    4.6714   -9.5450   -2.3483 O   0  0  0  0  0  0  0  0  0  0  0  0
    5.9556  -11.5683   -3.3209 C   0  0  0  0  0  0  0  0  0  0  0  0
    5.9717  -12.9340   -3.0149 C   0  0  0  0  0  0  0  0  0  0  0  0
    6.0599  -13.8655   -4.0510 C   0  0  0  0  0  0  0  0  0  0  0  0
    6.1204  -13.4251   -5.3709 C   0  0  0  0  0  0  0  0  0  0  0  0
    6.2030  -14.3234   -6.3602 F   0  0  0  0  0  0  0  0  0  0  0  0
    6.0995  -12.0697   -5.6781 C   0  0  0  0  0  0  0  0  0  0  0  0
    6.0192  -11.1428   -4.6438 C   0  0  0  0  0  0  0  0  0  0  0  0
    6.0239   -9.8388   -4.9483 F   0  0  0  0  0  0  0  0  0  0  0  0
    6.5803   -7.3828   -0.8672 C   0  0  0  0  0  0  0  0  0  0  0  0
    3.4094   -3.0400   -0.9178 C   0  0  0  0  0  0  0  0  0  0  0  0
    3.0425   -1.6912   -0.8815 C   0  0  0  0  0  0  0  0  0  0  0  0
    4.0560   -0.7701   -0.7358 C   0  0  0  0  0  0  0  0  0  0  0  0
    3.1206    2.4716   -0.5635 H   0  0  0  0  0  0  0  0  0  0  0  0
    2.1894    1.1200    0.1277 H   0  0  0  0  0  0  0  0  0  0  0  0
    2.3521    1.2846   -1.6466 H   0  0  0  0  0  0  0  0  0  0  0  0
    6.8168   -2.7329   -0.5983 H   0  0  0  0  0  0  0  0  0  0  0  0
    5.7409   -4.9919   -1.8283 H   0  0  0  0  0  0  0  0  0  0  0  0
    4.2533   -5.5165   -1.0128 H   0  0  0  0  0  0  0  0  0  0  0  0
    5.2787   -5.5040    1.0483 H   0  0  0  0  0  0  0  0  0  0  0  0
    8.0451   -5.7483    1.7203 H   0  0  0  0  0  0  0  0  0  0  0  0
    9.6525   -7.6052    1.4633 H   0  0  0  0  0  0  0  0  0  0  0  0
    9.3403   -9.2960   -0.3024 H   0  0  0  0  0  0  0  0  0  0  0  0
    8.1650  -10.1175   -2.2107 H   0  0  0  0  0  0  0  0  0  0  0  0
    7.3062   -8.8548   -3.1299 H   0  0  0  0  0  0  0  0  0  0  0  0
    5.9094  -13.2807   -1.9850 H   0  0  0  0  0  0  0  0  0  0  0  0
    6.0754  -14.9311   -3.8388 H   0  0  0  0  0  0  0  0  0  0  0  0
    6.1436  -11.7435   -6.7113 H   0  0  0  0  0  0  0  0  0  0  0  0
    5.7054   -7.3381   -1.5109 H   0  0  0  0  0  0  0  0  0  0  0  0
    2.6335   -3.7939   -1.0400 H   0  0  0  0  0  0  0  0  0  0  0  0
    2.0040   -1.3955   -0.9695 H   0  0  0  0  0  0  0  0  0  0  0  0
  1  2  1  0  0  0  0
  1 32  1  0  0  0  0
  1 33  1  0  0  0  0
  1 34  1  0  0  0  0
  2  3  1  0  0  0  0
  2 31  1  0  0  0  0
  3  4  2  0  0  0  0
  3  5  1  0  0  0  0
  5  6  1  0  0  0  0
  6  7  2  0  0  0  0
  6 31  1  0  0  0  0
  7  8  1  0  0  0  0
  7 35  1  0  0  0  0
  8  9  1  0  0  0  0
  8 29  2  0  0  0  0
  9 10  1  0  0  0  0
  9 36  1  0  0  0  0
  9 37  1  0  0  0  0
 10 11  1  0  0  0  0
 10 38  1  0  0  0  0
 11 12  2  0  0  0  0
 11 28  1  0  0  0  0
 12 13  1  0  0  0  0
 12 39  1  0  0  0  0
 13 14  2  0  0  0  0
 13 40  1  0  0  0  0
 14 15  1  0  0  0  0
 14 41  1  0  0  0  0
 15 16  1  0  0  0  0
 15 28  2  0  0  0  0
 16 17  1  0  0  0  0
 16 42  1  0  0  0  0
 16 43  1  0  0  0  0
 17 18  2  0  0  0  0
 17 19  2  0  0  0  0
 17 20  1  0  0  0  0
 20 21  2  0  0  0  0
 20 26  1  0  0  0  0
 21 22  1  0  0  0  0
 21 44  1  0  0  0  0
 22 23  2  0  0  0  0
 22 45  1  0  0  0  0
 23 24  1  0  0  0  0
 23 25  1  0  0  0  0
 25 26  2  0  0  0  0
 25 46  1  0  0  0  0
 26 27  1  0  0  0  0
 28 47  1  0  0  0  0
 29 30  1  0  0  0  0
 29 48  1  0  0  0  0
 30 31  2  0  0  0  0
 30 49  1  0  0  0  0
M  END
$$$$
