
 OpenBabel01122422473D

 41 44  0  0  0  0  0  0  0  0999 V2000
    2.1430   -5.0592    0.9840 O   0  0  0  0  0  0  0  0  0  0  0  0
    2.5793   -4.8044   -0.1357 C   0  0  0  0  0  0  0  0  0  0  0  0
    3.2331   -5.7909   -0.8181 N   0  0  0  0  0  0  0  0  0  0  0  0
    3.8181   -5.6187   -2.0667 C   0  0  0  0  0  0  0  0  0  0  0  0
    4.5285   -6.6675   -2.6554 C   0  0  0  0  0  0  0  0  0  0  0  0
    5.1089   -6.4871   -3.9131 C   0  0  0  0  0  0  0  0  0  0  0  0
    4.9759   -5.2682   -4.5780 C   0  0  0  0  0  0  0  0  0  0  0  0
    4.2728   -4.2181   -3.9810 C   0  0  0  0  0  0  0  0  0  0  0  0
    3.7003   -4.3973   -2.7172 C   0  0  0  0  0  0  0  0  0  0  0  0
    3.0006   -3.2933   -2.0255 C   0  0  0  0  0  0  0  0  0  0  0  0
    2.9191   -2.1979   -2.5720 O   0  0  0  0  0  0  0  0  0  0  0  0
    2.5023   -3.5651   -0.7487 N   0  0  0  0  0  0  0  0  0  0  0  0
    2.0007   -2.4500    0.0400 C   0  0  0  0  0  0  0  0  0  0  0  0
    0.5249   -2.1429   -0.1128 C   0  0  0  0  0  0  0  0  0  0  0  0
    0.0930   -1.2938   -1.1270 C   0  0  0  0  0  0  0  0  0  0  0  0
   -1.2439   -0.8954   -1.1500 C   0  0  0  0  0  0  0  0  0  0  0  0
   -1.7620   -0.0048   -2.0632 O   0  0  0  0  0  0  0  0  0  0  0  0
   -1.3045   -0.0222   -3.3616 C   0  0  0  0  0  0  0  0  0  0  0  0
   -1.2742    1.2103   -4.0256 C   0  0  0  0  0  0  0  0  0  0  0  0
   -0.8543    1.2798   -5.3569 C   0  0  0  0  0  0  0  0  0  0  0  0
   -0.4641    0.1158   -6.0120 C   0  0  0  0  0  0  0  0  0  0  0  0
   -0.0589    0.1835   -7.2877 F   0  0  0  0  0  0  0  0  0  0  0  0
   -0.5060   -1.1079   -5.3562 C   0  0  0  0  0  0  0  0  0  0  0  0
   -0.1243   -2.2262   -5.9883 F   0  0  0  0  0  0  0  0  0  0  0  0
   -0.9480   -1.1905   -4.0418 C   0  0  0  0  0  0  0  0  0  0  0  0
   -2.1043   -1.3230   -0.1474 C   0  0  0  0  0  0  0  0  0  0  0  0
   -1.6046   -2.1845    0.8096 C   0  0  0  0  0  0  0  0  0  0  0  0
   -0.3206   -2.6038    0.8429 N   0  0  0  0  0  0  0  0  0  0  0  0
    3.2993   -6.6764   -0.3330 H   0  0  0  0  0  0  0  0  0  0  0  0
    4.6435   -7.6205   -2.1472 H   0  0  0  0  0  0  0  0  0  0  0  0
    5.6675   -7.2995   -4.3742 H   0  0  0  0  0  0  0  0  0  0  0  0
    5.4249   -5.1320   -5.5604 H   0  0  0  0  0  0  0  0  0  0  0  0
    4.1828   -3.2656   -4.4981 H   0  0  0  0  0  0  0  0  0  0  0  0
    2.5676   -1.5454   -0.2160 H   0  0  0  0  0  0  0  0  0  0  0  0
    2.2070   -2.6330    1.1023 H   0  0  0  0  0  0  0  0  0  0  0  0
    0.8018   -0.9235   -1.8600 H   0  0  0  0  0  0  0  0  0  0  0  0
   -1.5762    2.1174   -3.5066 H   0  0  0  0  0  0  0  0  0  0  0  0
   -0.8292    2.2275   -5.8842 H   0  0  0  0  0  0  0  0  0  0  0  0
   -0.9960   -2.1646   -3.5668 H   0  0  0  0  0  0  0  0  0  0  0  0
   -3.1339   -0.9863   -0.1076 H   0  0  0  0  0  0  0  0  0  0  0  0
   -2.2331   -2.5564    1.6129 H   0  0  0  0  0  0  0  0  0  0  0  0
  1  2  2  0  0  0  0
  2  3  1  0  0  0  0
  2 12  1  0  0  0  0
  3  4  1  0  0  0  0
  3 29  1  0  0  0  0
  4  5  2  0  0  0  0
  4  9  1  0  0  0  0
  5  6  1  0  0  0  0
  5 30  1  0  0  0  0
  6  7  2  0  0  0  0
  6 31  1  0  0  0  0
  7  8  1  0  0  0  0
  7 32  1  0  0  0  0
  8  9  2  0  0  0  0
  8 33  1  0  0  0  0
  9 10  1  0  0  0  0
 10 11  2  0  0  0  0
 10 12  1  0  0  0  0
 12 13  1  0  0  0  0
 13 14  1  0  0  0  0
 13 34  1  0  0  0  0
 13 35  1  0  0  0  0
 14 15  2  0  0  0  0
 14 28  1  0  0  0  0
 15 16  1  0  0  0  0
 15 36  1  0  0  0  0
 16 17  1  0  0  0  0
 16 26  2  0  0  0  0
 17 18  1  0  0  0  0
 18 19  2  0  0  0  0
 18 25  1  0  0  0  0
 19 20  1  0  0  0  0
 19 37  1  0  0  0  0
 20 21  2  0  0  0  0
 20 38  1  0  0  0  0
 21 22  1  0  0  0  0
 21 23  1  0  0  0  0
 23 24  1  0  0  0  0
 23 25  2  0  0  0  0
 25 39  1  0  0  0  0
 26 27  1  0  0  0  0
 26 40  1  0  0  0  0
 27 28  2  0  0  0  0
 27 41  1  0  0  0  0
M  END
$$$$
