
 OpenBabel01122422473D

 49 52  0  0  0  0  0  0  0  0999 V2000
    4.5052   -4.4754    0.2325 C   0  0  0  0  0  0  0  0  0  0  0  0
    4.0142   -3.1837    0.5759 O   0  0  0  0  0  0  0  0  0  0  0  0
    4.2758   -2.1735   -0.3361 C   0  0  0  0  0  0  0  0  0  0  0  0
    4.5076   -0.9084    0.0568 C   0  0  0  0  0  0  0  0  0  0  0  0
    4.5808   -0.5317    1.5240 C   0  0  0  0  0  0  0  0  0  0  0  0
    4.9226   -1.3162    2.3991 O   0  0  0  0  0  0  0  0  0  0  0  0
    4.2799    0.7936    1.7762 N   0  0  0  0  0  0  0  0  0  0  0  0
    4.3742    1.3491    3.1052 C   0  0  0  0  0  0  0  0  0  0  0  0
    3.4646    2.5404    3.2594 C   0  0  0  0  0  0  0  0  0  0  0  0
    2.1291    2.3287    3.5885 C   0  0  0  0  0  0  0  0  0  0  0  0
    1.2721    3.4105    3.7653 C   0  0  0  0  0  0  0  0  0  0  0  0
    1.7059    4.7558    3.6780 C   0  0  0  0  0  0  0  0  0  0  0  0
    0.7553    5.8370    4.0546 C   0  0  0  0  0  0  0  0  0  0  0  0
   -0.2368    5.5235    5.0034 C   0  0  0  0  0  0  0  0  0  0  0  0
   -1.3322    6.3417    5.2168 C   0  0  0  0  0  0  0  0  0  0  0  0
   -1.3578    7.6055    4.6474 C   0  0  0  0  0  0  0  0  0  0  0  0
   -2.4621    8.4249    4.8469 C   0  0  0  0  0  0  0  0  0  0  0  0
   -2.2870    9.7888    4.9496 C   0  0  0  0  0  0  0  0  0  0  0  0
   -1.1377   10.3330    4.3993 C   0  0  0  0  0  0  0  0  0  0  0  0
   -0.1916    9.4981    3.7756 C   0  0  0  0  0  0  0  0  0  0  0  0
   -0.2392    8.0971    3.9635 C   0  0  0  0  0  0  0  0  0  0  0  0
    0.7570    7.1589    3.5589 C   0  0  0  0  0  0  0  0  0  0  0  0
    3.0338    4.9573    3.2820 C   0  0  0  0  0  0  0  0  0  0  0  0
    3.9008    3.8624    3.0711 C   0  0  0  0  0  0  0  0  0  0  0  0
    4.7244    0.0988   -0.8557 N   0  0  0  0  0  0  0  0  0  0  0  0
    4.7144   -0.0881   -2.2099 C   0  0  0  0  0  0  0  0  0  0  0  0
    4.9116    0.8461   -2.9314 O   0  0  0  0  0  0  0  0  0  0  0  0
    4.5005   -1.3401   -2.6365 N   0  0  0  0  0  0  0  0  0  0  0  0
    4.2350   -2.4136   -1.8242 C   0  0  0  0  0  0  0  0  0  0  0  0
    3.9882   -3.4890   -2.3263 O   0  0  0  0  0  0  0  0  0  0  0  0
    4.5071   -5.0904    1.1371 H   0  0  0  0  0  0  0  0  0  0  0  0
    5.5304   -4.4338   -0.1536 H   0  0  0  0  0  0  0  0  0  0  0  0
    3.8321   -4.9637   -0.4778 H   0  0  0  0  0  0  0  0  0  0  0  0
    3.9128    1.3886    1.0515 H   0  0  0  0  0  0  0  0  0  0  0  0
    5.4165    1.6312    3.2894 H   0  0  0  0  0  0  0  0  0  0  0  0
    4.1228    0.5816    3.8484 H   0  0  0  0  0  0  0  0  0  0  0  0
    1.7418    1.3216    3.7293 H   0  0  0  0  0  0  0  0  0  0  0  0
    0.2365    3.1806    4.0102 H   0  0  0  0  0  0  0  0  0  0  0  0
   -0.1794    4.6040    5.5827 H   0  0  0  0  0  0  0  0  0  0  0  0
   -2.0985    6.0285    5.9205 H   0  0  0  0  0  0  0  0  0  0  0  0
   -3.4657    8.0068    4.7890 H   0  0  0  0  0  0  0  0  0  0  0  0
   -3.0618   10.4033    5.3982 H   0  0  0  0  0  0  0  0  0  0  0  0
   -1.0122   11.4115    4.4063 H   0  0  0  0  0  0  0  0  0  0  0  0
    0.6298    9.9568    3.2351 H   0  0  0  0  0  0  0  0  0  0  0  0
    1.5366    7.4893    2.8764 H   0  0  0  0  0  0  0  0  0  0  0  0
    3.4300    5.9632    3.1650 H   0  0  0  0  0  0  0  0  0  0  0  0
    4.9333    4.0569    2.7862 H   0  0  0  0  0  0  0  0  0  0  0  0
    4.9623    1.0344   -0.5426 H   0  0  0  0  0  0  0  0  0  0  0  0
    4.4665   -1.4975   -3.6247 H   0  0  0  0  0  0  0  0  0  0  0  0
  1  2  1  0  0  0  0
  1 31  1  0  0  0  0
  1 32  1  0  0  0  0
  1 33  1  0  0  0  0
  2  3  1  0  0  0  0
  3  4  2  0  0  0  0
  3 29  1  0  0  0  0
  4  5  1  0  0  0  0
  4 25  1  0  0  0  0
  5  6  2  0  0  0  0
  5  7  1  0  0  0  0
  7  8  1  0  0  0  0
  7 34  1  0  0  0  0
  8  9  1  0  0  0  0
  8 35  1  0  0  0  0
  8 36  1  0  0  0  0
  9 10  2  0  0  0  0
  9 24  1  0  0  0  0
 10 11  1  0  0  0  0
 10 37  1  0  0  0  0
 11 12  2  0  0  0  0
 11 38  1  0  0  0  0
 12 13  1  0  0  0  0
 12 23  1  0  0  0  0
 13 14  2  0  0  0  0
 13 22  1  0  0  0  0
 14 15  1  0  0  0  0
 14 39  1  0  0  0  0
 15 16  2  0  0  0  0
 15 40  1  0  0  0  0
 16 17  1  0  0  0  0
 16 21  1  0  0  0  0
 17 18  2  0  0  0  0
 17 41  1  0  0  0  0
 18 19  1  0  0  0  0
 18 42  1  0  0  0  0
 19 20  2  0  0  0  0
 19 43  1  0  0  0  0
 20 21  1  0  0  0  0
 20 44  1  0  0  0  0
 21 22  2  0  0  0  0
 22 45  1  0  0  0  0
 23 24  2  0  0  0  0
 23 46  1  0  0  0  0
 24 47  1  0  0  0  0
 25 26  1  0  0  0  0
 25 48  1  0  0  0  0
 26 27  2  0  0  0  0
 26 28  1  0  0  0  0
 28 29  1  0  0  0  0
 28 49  1  0  0  0  0
 29 30  2  0  0  0  0
M  END
$$$$
