
 OpenBabel01122422473D

 53 56  0  0  0  0  0  0  0  0999 V2000
    1.2123   -0.0495    1.2666 C   0  0  0  0  0  0  0  0  0  0  0  0
    2.5625    0.0179    0.5953 C   0  0  0  0  0  0  0  0  0  0  0  0
    3.1448   -1.1171   -0.0070 C   0  0  0  0  0  0  0  0  0  0  0  0
    2.4492   -2.4280   -0.1497 C   0  0  0  0  0  0  0  0  0  0  0  0
    1.2480   -2.4609   -0.3915 O   0  0  0  0  0  0  0  0  0  0  0  0
    3.2140   -3.5698   -0.0303 N   0  0  0  0  0  0  0  0  0  0  0  0
    2.6128   -4.8877   -0.1345 C   0  0  0  0  0  0  0  0  0  0  0  0
    2.3360   -5.4839    1.2153 C   0  0  0  0  0  0  0  0  0  0  0  0
    1.1270   -5.2541    1.8786 C   0  0  0  0  0  0  0  0  0  0  0  0
    0.8805   -5.8366    3.1303 C   0  0  0  0  0  0  0  0  0  0  0  0
    1.8385   -6.6439    3.7739 C   0  0  0  0  0  0  0  0  0  0  0  0
    1.5833   -7.2475    5.1051 C   0  0  0  0  0  0  0  0  0  0  0  0
    2.1296   -8.4941    5.4663 C   0  0  0  0  0  0  0  0  0  0  0  0
    1.9033   -9.0561    6.7274 C   0  0  0  0  0  0  0  0  0  0  0  0
    1.1101   -8.3906    7.6553 C   0  0  0  0  0  0  0  0  0  0  0  0
    0.5493   -7.1618    7.3248 C   0  0  0  0  0  0  0  0  0  0  0  0
    0.7904   -6.5956    6.0683 C   0  0  0  0  0  0  0  0  0  0  0  0
    3.0540   -6.8467    3.0994 C   0  0  0  0  0  0  0  0  0  0  0  0
    3.2882   -6.2794    1.8469 C   0  0  0  0  0  0  0  0  0  0  0  0
    4.4637   -6.5119    1.2455 F   0  0  0  0  0  0  0  0  0  0  0  0
    4.3954   -0.9684   -0.5915 C   0  0  0  0  0  0  0  0  0  0  0  0
    5.0988    0.1899   -0.6121 N   0  0  0  0  0  0  0  0  0  0  0  0
    4.5360    1.2915   -0.0538 C   0  0  0  0  0  0  0  0  0  0  0  0
    3.2834    1.2490    0.5523 C   0  0  0  0  0  0  0  0  0  0  0  0
    2.7591    2.5172    1.1156 C   0  0  0  0  0  0  0  0  0  0  0  0
    1.6524    2.5499    1.6516 O   0  0  0  0  0  0  0  0  0  0  0  0
    3.5563    3.6448    1.0107 N   0  0  0  0  0  0  0  0  0  0  0  0
    3.0556    4.8977    1.5571 C   0  0  0  0  0  0  0  0  0  0  0  0
    4.8010    3.6833    0.4061 C   0  0  0  0  0  0  0  0  0  0  0  0
    5.4514    4.7297    0.3451 O   0  0  0  0  0  0  0  0  0  0  0  0
    5.2682    2.4966   -0.1159 N   0  0  0  0  0  0  0  0  0  0  0  0
    6.5667    2.4684   -0.7736 C   0  0  0  0  0  0  0  0  0  0  0  0
    0.7908   -1.0520    1.3323 H   0  0  0  0  0  0  0  0  0  0  0  0
    0.4914    0.5705    0.7227 H   0  0  0  0  0  0  0  0  0  0  0  0
    1.2947    0.2848    2.3062 H   0  0  0  0  0  0  0  0  0  0  0  0
    4.1785   -3.5320    0.2695 H   0  0  0  0  0  0  0  0  0  0  0  0
    3.3044   -5.5232   -0.6989 H   0  0  0  0  0  0  0  0  0  0  0  0
    1.6867   -4.8413   -0.7193 H   0  0  0  0  0  0  0  0  0  0  0  0
    0.3624   -4.6272    1.4210 H   0  0  0  0  0  0  0  0  0  0  0  0
   -0.0890   -5.6559    3.5915 H   0  0  0  0  0  0  0  0  0  0  0  0
    2.7383   -9.0578    4.7628 H   0  0  0  0  0  0  0  0  0  0  0  0
    2.3465  -10.0160    6.9800 H   0  0  0  0  0  0  0  0  0  0  0  0
    0.9297   -8.8290    8.6331 H   0  0  0  0  0  0  0  0  0  0  0  0
   -0.0730   -6.6359    8.0444 H   0  0  0  0  0  0  0  0  0  0  0  0
    0.3554   -5.6209    5.8590 H   0  0  0  0  0  0  0  0  0  0  0  0
    3.8488   -7.4428    3.5382 H   0  0  0  0  0  0  0  0  0  0  0  0
    4.8852   -1.7891   -1.1100 H   0  0  0  0  0  0  0  0  0  0  0  0
    2.0701    4.7946    2.0195 H   0  0  0  0  0  0  0  0  0  0  0  0
    2.9907    5.6368    0.7522 H   0  0  0  0  0  0  0  0  0  0  0  0
    3.7606    5.2630    2.3100 H   0  0  0  0  0  0  0  0  0  0  0  0
    7.0487    3.4507   -0.7673 H   0  0  0  0  0  0  0  0  0  0  0  0
    6.4425    2.1635   -1.8177 H   0  0  0  0  0  0  0  0  0  0  0  0
    7.2255    1.7685   -0.2501 H   0  0  0  0  0  0  0  0  0  0  0  0
  1  2  1  0  0  0  0
  1 33  1  0  0  0  0
  1 34  1  0  0  0  0
  1 35  1  0  0  0  0
  2  3  2  0  0  0  0
  2 24  1  0  0  0  0
  3  4  1  0  0  0  0
  3 21  1  0  0  0  0
  4  5  2  0  0  0  0
  4  6  1  0  0  0  0
  6  7  1  0  0  0  0
  6 36  1  0  0  0  0
  7  8  1  0  0  0  0
  7 37  1  0  0  0  0
  7 38  1  0  0  0  0
  8  9  2  0  0  0  0
  8 19  1  0  0  0  0
  9 10  1  0  0  0  0
  9 39  1  0  0  0  0
 10 11  2  0  0  0  0
 10 40  1  0  0  0  0
 11 12  1  0  0  0  0
 11 18  1  0  0  0  0
 12 13  2  0  0  0  0
 12 17  1  0  0  0  0
 13 14  1  0  0  0  0
 13 41  1  0  0  0  0
 14 15  2  0  0  0  0
 14 42  1  0  0  0  0
 15 16  1  0  0  0  0
 15 43  1  0  0  0  0
 16 17  2  0  0  0  0
 16 44  1  0  0  0  0
 17 45  1  0  0  0  0
 18 19  2  0  0  0  0
 18 46  1  0  0  0  0
 19 20  1  0  0  0  0
 21 22  2  0  0  0  0
 21 47  1  0  0  0  0
 22 23  1  0  0  0  0
 23 24  2  0  0  0  0
 23 31  1  0  0  0  0
 24 25  1  0  0  0  0
 25 26  2  0  0  0  0
 25 27  1  0  0  0  0
 27 28  1  0  0  0  0
 27 29  1  0  0  0  0
 28 48  1  0  0  0  0
 28 49  1  0  0  0  0
 28 50  1  0  0  0  0
 29 30  2  0  0  0  0
 29 31  1  0  0  0  0
 31 32  1  0  0  0  0
 32 51  1  0  0  0  0
 32 52  1  0  0  0  0
 32 53  1  0  0  0  0
M  END
$$$$
