
 OpenBabel01122422473D

 46 49  0  0  0  0  0  0  0  0999 V2000
    5.3422   -1.5115    1.3196 C   0  0  0  0  0  0  0  0  0  0  0  0
    4.3592   -0.6369    0.6110 C   0  0  0  0  0  0  0  0  0  0  0  0
    4.7524    0.6399    0.1753 C   0  0  0  0  0  0  0  0  0  0  0  0
    3.8305    1.4296   -0.4779 C   0  0  0  0  0  0  0  0  0  0  0  0
    2.5630    1.0287   -0.7281 N   0  0  0  0  0  0  0  0  0  0  0  0
    2.1701   -0.2094   -0.3283 N   0  0  0  0  0  0  0  0  0  0  0  0
    3.0443   -1.0124    0.3380 C   0  0  0  0  0  0  0  0  0  0  0  0
    2.4530   -2.3447    0.7334 C   0  0  0  0  0  0  0  0  0  0  0  0
    3.0641   -3.0939    1.4887 O   0  0  0  0  0  0  0  0  0  0  0  0
    1.2287   -2.6099    0.1404 N   0  0  0  0  0  0  0  0  0  0  0  0
    0.4714   -3.7834    0.2477 C   0  0  0  0  0  0  0  0  0  0  0  0
    0.7211   -4.7816    1.1947 C   0  0  0  0  0  0  0  0  0  0  0  0
   -0.0519   -5.9407    1.2253 C   0  0  0  0  0  0  0  0  0  0  0  0
   -1.0972   -6.1124    0.3116 C   0  0  0  0  0  0  0  0  0  0  0  0
   -1.3892   -5.1274   -0.6339 C   0  0  0  0  0  0  0  0  0  0  0  0
   -2.4238   -5.2507   -1.5921 N   0  0  0  0  0  0  0  0  0  0  0  0
   -3.4412   -6.2058   -1.5814 C   0  0  0  0  0  0  0  0  0  0  0  0
   -3.6865   -6.9926   -0.6889 O   0  0  0  0  0  0  0  0  0  0  0  0
   -4.2431   -6.2405   -2.8580 C   0  0  0  0  0  0  0  0  0  0  0  0
   -5.2488   -7.2005   -2.9559 C   0  0  0  0  0  0  0  0  0  0  0  0
   -5.6440   -7.6080   -4.2320 C   0  0  0  0  0  0  0  0  0  0  0  0
   -6.5057   -8.6888   -4.4009 C   0  0  0  0  0  0  0  0  0  0  0  0
   -6.3484   -9.4715   -5.5301 C   0  0  0  0  0  0  0  0  0  0  0  0
   -6.7926  -10.7335   -5.5215 F   0  0  0  0  0  0  0  0  0  0  0  0
   -5.6707   -8.9829   -6.6399 C   0  0  0  0  0  0  0  0  0  0  0  0
   -5.1326   -7.6956   -6.5967 C   0  0  0  0  0  0  0  0  0  0  0  0
   -5.0164   -7.0387   -5.3570 C   0  0  0  0  0  0  0  0  0  0  0  0
   -4.2171   -5.9143   -5.1357 C   0  0  0  0  0  0  0  0  0  0  0  0
   -3.7963   -5.5048   -3.9238 N   0  0  0  0  0  0  0  0  0  0  0  0
   -0.5965   -3.9640   -0.6609 C   0  0  0  0  0  0  0  0  0  0  0  0
    6.3339   -1.0475    1.3560 H   0  0  0  0  0  0  0  0  0  0  0  0
    5.4550   -2.4633    0.7910 H   0  0  0  0  0  0  0  0  0  0  0  0
    5.0296   -1.6828    2.3541 H   0  0  0  0  0  0  0  0  0  0  0  0
    5.7516    1.0057    0.3379 H   0  0  0  0  0  0  0  0  0  0  0  0
    4.0744    2.4304   -0.8222 H   0  0  0  0  0  0  0  0  0  0  0  0
    0.8929   -1.8915   -0.4983 H   0  0  0  0  0  0  0  0  0  0  0  0
    1.5086   -4.6780    1.9341 H   0  0  0  0  0  0  0  0  0  0  0  0
    0.1620   -6.7137    1.9566 H   0  0  0  0  0  0  0  0  0  0  0  0
   -1.6450   -7.0463    0.3509 H   0  0  0  0  0  0  0  0  0  0  0  0
   -2.4277   -4.6086   -2.3746 H   0  0  0  0  0  0  0  0  0  0  0  0
   -5.5475   -7.7656   -2.0801 H   0  0  0  0  0  0  0  0  0  0  0  0
   -7.2183   -8.9826   -3.6362 H   0  0  0  0  0  0  0  0  0  0  0  0
   -5.5675   -9.6089   -7.5208 H   0  0  0  0  0  0  0  0  0  0  0  0
   -4.6765   -7.2795   -7.4913 H   0  0  0  0  0  0  0  0  0  0  0  0
   -3.8117   -5.3456   -5.9688 H   0  0  0  0  0  0  0  0  0  0  0  0
   -0.8115   -3.1897   -1.3935 H   0  0  0  0  0  0  0  0  0  0  0  0
  1  2  1  0  0  0  0
  1 31  1  0  0  0  0
  1 32  1  0  0  0  0
  1 33  1  0  0  0  0
  2  3  2  0  0  0  0
  2  7  1  0  0  0  0
  3  4  1  0  0  0  0
  3 34  1  0  0  0  0
  4  5  2  0  0  0  0
  4 35  1  0  0  0  0
  5  6  1  0  0  0  0
  6  7  2  0  0  0  0
  7  8  1  0  0  0  0
  8  9  2  0  0  0  0
  8 10  1  0  0  0  0
 10 11  1  0  0  0  0
 10 36  1  0  0  0  0
 11 12  2  0  0  0  0
 11 30  1  0  0  0  0
 12 13  1  0  0  0  0
 12 37  1  0  0  0  0
 13 14  2  0  0  0  0
 13 38  1  0  0  0  0
 14 15  1  0  0  0  0
 14 39  1  0  0  0  0
 15 16  1  0  0  0  0
 15 30  2  0  0  0  0
 16 17  1  0  0  0  0
 16 40  1  0  0  0  0
 17 18  2  0  0  0  0
 17 19  1  0  0  0  0
 19 20  2  0  0  0  0
 19 29  1  0  0  0  0
 20 21  1  0  0  0  0
 20 41  1  0  0  0  0
 21 22  2  0  0  0  0
 21 27  1  0  0  0  0
 22 23  1  0  0  0  0
 22 42  1  0  0  0  0
 23 24  1  0  0  0  0
 23 25  2  0  0  0  0
 25 26  1  0  0  0  0
 25 43  1  0  0  0  0
 26 27  2  0  0  0  0
 26 44  1  0  0  0  0
 27 28  1  0  0  0  0
 28 29  2  0  0  0  0
 28 45  1  0  0  0  0
 30 46  1  0  0  0  0
M  END
$$$$
