
 OpenBabel01122422473D

 45 48  0  0  0  0  0  0  0  0999 V2000
   -2.0314    0.1118   -0.1637 C   0  0  0  0  0  0  0  0  0  0  0  0
   -0.5919    0.0191   -0.1279 N   0  0  0  0  0  0  0  0  0  0  0  0
    0.1420   -1.1212   -0.1950 C   0  0  0  0  0  0  0  0  0  0  0  0
    1.4667   -0.7362   -0.1338 C   0  0  0  0  0  0  0  0  0  0  0  0
    2.6693   -1.6180   -0.1222 C   0  0  0  0  0  0  0  0  0  0  0  0
    2.3434   -3.0128   -0.1498 O   0  0  0  0  0  0  0  0  0  0  0  0
    2.0886   -3.5580    1.0580 C   0  0  0  0  0  0  0  0  0  0  0  0
    2.1440   -2.9990    2.1397 O   0  0  0  0  0  0  0  0  0  0  0  0
    1.6642   -4.9662    0.8835 C   0  0  0  0  0  0  0  0  0  0  0  0
    1.1548   -5.6291    2.0093 C   0  0  0  0  0  0  0  0  0  0  0  0
    0.7100   -6.9467    1.9019 C   0  0  0  0  0  0  0  0  0  0  0  0
    0.7939   -7.6046    0.6691 C   0  0  0  0  0  0  0  0  0  0  0  0
    0.3428   -8.9268    0.5641 N   0  0  0  0  0  0  0  0  0  0  0  0
   -0.2057   -9.6213    1.6074 C   0  0  0  0  0  0  0  0  0  0  0  0
   -0.6092  -10.7727    1.4946 O   0  0  0  0  0  0  0  0  0  0  0  0
   -0.3004   -8.9073    2.9061 C   0  0  0  0  0  0  0  0  0  0  0  0
    0.1390   -7.6510    3.0485 C   0  0  0  0  0  0  0  0  0  0  0  0
    1.3098   -6.9445   -0.4441 C   0  0  0  0  0  0  0  0  0  0  0  0
    1.3821   -7.5744   -1.6258 F   0  0  0  0  0  0  0  0  0  0  0  0
    1.7402   -5.6274   -0.3504 C   0  0  0  0  0  0  0  0  0  0  0  0
    1.4242    0.6948   -0.0390 C   0  0  0  0  0  0  0  0  0  0  0  0
    2.5513    1.6285    0.0847 C   0  0  0  0  0  0  0  0  0  0  0  0
    3.7754    1.3777   -0.5524 C   0  0  0  0  0  0  0  0  0  0  0  0
    4.8847    2.1976   -0.3334 C   0  0  0  0  0  0  0  0  0  0  0  0
    4.7724    3.3146    0.4936 C   0  0  0  0  0  0  0  0  0  0  0  0
    5.9168    4.1394    0.7366 C   0  0  0  0  0  0  0  0  0  0  0  0
    6.8572    4.7947    0.9310 N   0  0  0  0  0  0  0  0  0  0  0  0
    3.5423    3.6155    1.0835 C   0  0  0  0  0  0  0  0  0  0  0  0
    2.4388    2.7766    0.8812 C   0  0  0  0  0  0  0  0  0  0  0  0
    0.1525    1.1321   -0.0288 N   0  0  0  0  0  0  0  0  0  0  0  0
   -2.4584   -0.8952   -0.1753 H   0  0  0  0  0  0  0  0  0  0  0  0
   -2.3174    0.6453   -1.0731 H   0  0  0  0  0  0  0  0  0  0  0  0
   -2.3715    0.6464    0.7261 H   0  0  0  0  0  0  0  0  0  0  0  0
   -0.3206   -2.0962   -0.2583 H   0  0  0  0  0  0  0  0  0  0  0  0
    3.3292   -1.3869    0.7232 H   0  0  0  0  0  0  0  0  0  0  0  0
    3.2463   -1.4504   -1.0358 H   0  0  0  0  0  0  0  0  0  0  0  0
    1.0964   -5.1062    2.9630 H   0  0  0  0  0  0  0  0  0  0  0  0
    0.4061   -9.4090   -0.3244 H   0  0  0  0  0  0  0  0  0  0  0  0
   -0.7422   -9.4610    3.7249 H   0  0  0  0  0  0  0  0  0  0  0  0
    0.0694   -7.1360    4.0010 H   0  0  0  0  0  0  0  0  0  0  0  0
    2.1226   -5.1388   -1.2418 H   0  0  0  0  0  0  0  0  0  0  0  0
    3.8913    0.5444   -1.2367 H   0  0  0  0  0  0  0  0  0  0  0  0
    5.8313    1.9520   -0.8113 H   0  0  0  0  0  0  0  0  0  0  0  0
    3.4319    4.4972    1.7134 H   0  0  0  0  0  0  0  0  0  0  0  0
    1.4911    3.0163    1.3607 H   0  0  0  0  0  0  0  0  0  0  0  0
  1  2  1  0  0  0  0
  1 31  1  0  0  0  0
  1 32  1  0  0  0  0
  1 33  1  0  0  0  0
  2  3  1  0  0  0  0
  2 30  1  0  0  0  0
  3  4  2  0  0  0  0
  3 34  1  0  0  0  0
  4  5  1  0  0  0  0
  4 21  1  0  0  0  0
  5  6  1  0  0  0  0
  5 35  1  0  0  0  0
  5 36  1  0  0  0  0
  6  7  1  0  0  0  0
  7  8  2  0  0  0  0
  7  9  1  0  0  0  0
  9 10  2  0  0  0  0
  9 20  1  0  0  0  0
 10 11  1  0  0  0  0
 10 37  1  0  0  0  0
 11 12  2  0  0  0  0
 11 17  1  0  0  0  0
 12 13  1  0  0  0  0
 12 18  1  0  0  0  0
 13 14  1  0  0  0  0
 13 38  1  0  0  0  0
 14 15  2  0  0  0  0
 14 16  1  0  0  0  0
 16 17  2  0  0  0  0
 16 39  1  0  0  0  0
 17 40  1  0  0  0  0
 18 19  1  0  0  0  0
 18 20  2  0  0  0  0
 20 41  1  0  0  0  0
 21 22  1  0  0  0  0
 21 30  2  0  0  0  0
 22 23  2  0  0  0  0
 22 29  1  0  0  0  0
 23 24  1  0  0  0  0
 23 42  1  0  0  0  0
 24 25  2  0  0  0  0
 24 43  1  0  0  0  0
 25 26  1  0  0  0  0
 25 28  1  0  0  0  0
 26 27  3  0  0  0  0
 28 29  2  0  0  0  0
 28 44  1  0  0  0  0
 29 45  1  0  0  0  0
M  END
$$$$
