
 OpenBabel01122422473D

 44 47  0  0  0  0  0  0  0  0999 V2000
    1.2610   -0.3128   -0.0663 O   0  0  0  0  0  0  0  0  0  0  0  0
    2.4865   -0.3102   -0.0070 C   0  0  0  0  0  0  0  0  0  0  0  0
    3.1720   -0.2887    1.1883 N   0  0  0  0  0  0  0  0  0  0  0  0
    2.4185   -0.2185    2.4201 C   0  0  0  0  0  0  0  0  0  0  0  0
    3.3046   -0.2781    3.6325 C   0  0  0  0  0  0  0  0  0  0  0  0
    3.5785   -1.4972    4.2680 C   0  0  0  0  0  0  0  0  0  0  0  0
    4.3567   -1.5321    5.4307 C   0  0  0  0  0  0  0  0  0  0  0  0
    4.8783   -0.3521    5.9696 C   0  0  0  0  0  0  0  0  0  0  0  0
    5.6263   -0.5006    7.1138 O   0  0  0  0  0  0  0  0  0  0  0  0
    5.6073    0.4643    8.0893 C   0  0  0  0  0  0  0  0  0  0  0  0
    4.5396    1.3104    8.3811 C   0  0  0  0  0  0  0  0  0  0  0  0
    4.6770    2.2670    9.3862 C   0  0  0  0  0  0  0  0  0  0  0  0
    5.8619    2.3063   10.1038 C   0  0  0  0  0  0  0  0  0  0  0  0
    6.8921    1.4600    9.8943 N   0  0  0  0  0  0  0  0  0  0  0  0
    6.7376    0.5597    8.8930 C   0  0  0  0  0  0  0  0  0  0  0  0
    4.6755    0.8468    5.2853 C   0  0  0  0  0  0  0  0  0  0  0  0
    5.2330    1.9912    5.7049 F   0  0  0  0  0  0  0  0  0  0  0  0
    3.8786    0.8929    4.1431 C   0  0  0  0  0  0  0  0  0  0  0  0
    3.2688   -0.2407   -1.2678 C   0  0  0  0  0  0  0  0  0  0  0  0
    2.7064    0.5801   -2.2542 C   0  0  0  0  0  0  0  0  0  0  0  0
    3.3543    0.6628   -3.4656 C   0  0  0  0  0  0  0  0  0  0  0  0
    2.8712    1.4399   -4.4737 O   0  0  0  0  0  0  0  0  0  0  0  0
    4.4822    0.0068   -3.7507 N   0  0  0  0  0  0  0  0  0  0  0  0
    5.0055   -0.8051   -2.8136 C   0  0  0  0  0  0  0  0  0  0  0  0
    6.1514   -1.5273   -3.1031 C   0  0  0  0  0  0  0  0  0  0  0  0
    6.7868   -2.3869   -2.2664 N   0  0  0  0  0  0  0  0  0  0  0  0
    6.2330   -2.5534   -1.0561 C   0  0  0  0  0  0  0  0  0  0  0  0
    5.0822   -1.8961   -0.6508 C   0  0  0  0  0  0  0  0  0  0  0  0
    4.4495   -0.9817   -1.5308 C   0  0  0  0  0  0  0  0  0  0  0  0
    4.1526   -0.0399    1.2036 H   0  0  0  0  0  0  0  0  0  0  0  0
    1.6861   -1.0353    2.4370 H   0  0  0  0  0  0  0  0  0  0  0  0
    1.8427    0.7154    2.4191 H   0  0  0  0  0  0  0  0  0  0  0  0
    3.1724   -2.4273    3.8729 H   0  0  0  0  0  0  0  0  0  0  0  0
    4.5500   -2.4836    5.9217 H   0  0  0  0  0  0  0  0  0  0  0  0
    3.6079    1.2595    7.8276 H   0  0  0  0  0  0  0  0  0  0  0  0
    3.8793    2.9698    9.5993 H   0  0  0  0  0  0  0  0  0  0  0  0
    6.0161    3.0394   10.8905 H   0  0  0  0  0  0  0  0  0  0  0  0
    7.5816   -0.1082    8.7458 H   0  0  0  0  0  0  0  0  0  0  0  0
    3.7042    1.8545    3.6676 H   0  0  0  0  0  0  0  0  0  0  0  0
    1.7934    1.1295   -2.0581 H   0  0  0  0  0  0  0  0  0  0  0  0
    2.0145    1.8020   -4.2022 H   0  0  0  0  0  0  0  0  0  0  0  0
    6.6083   -1.4322   -4.0859 H   0  0  0  0  0  0  0  0  0  0  0  0
    6.7449   -3.2533   -0.4016 H   0  0  0  0  0  0  0  0  0  0  0  0
    4.6879   -2.1178    0.3344 H   0  0  0  0  0  0  0  0  0  0  0  0
  1  2  2  0  0  0  0
  2  3  1  0  0  0  0
  2 19  1  0  0  0  0
  3  4  1  0  0  0  0
  3 30  1  0  0  0  0
  4  5  1  0  0  0  0
  4 31  1  0  0  0  0
  4 32  1  0  0  0  0
  5  6  2  0  0  0  0
  5 18  1  0  0  0  0
  6  7  1  0  0  0  0
  6 33  1  0  0  0  0
  7  8  2  0  0  0  0
  7 34  1  0  0  0  0
  8  9  1  0  0  0  0
  8 16  1  0  0  0  0
  9 10  1  0  0  0  0
 10 11  2  0  0  0  0
 10 15  1  0  0  0  0
 11 12  1  0  0  0  0
 11 35  1  0  0  0  0
 12 13  2  0  0  0  0
 12 36  1  0  0  0  0
 13 14  1  0  0  0  0
 13 37  1  0  0  0  0
 14 15  2  0  0  0  0
 15 38  1  0  0  0  0
 16 17  1  0  0  0  0
 16 18  2  0  0  0  0
 18 39  1  0  0  0  0
 19 20  2  0  0  0  0
 19 29  1  0  0  0  0
 20 21  1  0  0  0  0
 20 40  1  0  0  0  0
 21 22  1  0  0  0  0
 21 23  2  0  0  0  0
 22 41  1  0  0  0  0
 23 24  1  0  0  0  0
 24 25  2  0  0  0  0
 24 29  1  0  0  0  0
 25 26  1  0  0  0  0
 25 42  1  0  0  0  0
 26 27  2  0  0  0  0
 27 28  1  0  0  0  0
 27 43  1  0  0  0  0
 28 29  2  0  0  0  0
 28 44  1  0  0  0  0
M  END
$$$$
