
 OpenBabel01122422473D

 50 53  0  0  0  0  0  0  0  0999 V2000
    1.8441    1.4937   -0.2510 C   0  0  0  0  0  0  0  0  0  0  0  0
    0.5384    0.7452   -0.2267 C   0  0  0  0  0  0  0  0  0  0  0  0
    0.4805   -0.5171    0.3761 C   0  0  0  0  0  0  0  0  0  0  0  0
   -0.7231   -1.2224    0.4415 C   0  0  0  0  0  0  0  0  0  0  0  0
   -1.8788   -0.6987   -0.1429 C   0  0  0  0  0  0  0  0  0  0  0  0
   -3.0797   -1.4236   -0.1207 N   0  0  0  0  0  0  0  0  0  0  0  0
   -4.1852   -1.1057   -0.9591 N   0  0  0  0  0  0  0  0  0  0  0  0
   -5.1280   -2.0897   -0.6662 C   0  0  0  0  0  0  0  0  0  0  0  0
   -6.4093   -2.3872   -1.3588 C   0  0  0  0  0  0  0  0  0  0  0  0
   -6.9027   -3.5158   -1.2024 O   0  0  0  0  0  0  0  0  0  0  0  0
   -6.9441   -1.4270   -2.1962 N   0  0  0  0  0  0  0  0  0  0  0  0
   -8.0955   -1.6418   -2.9432 C   0  0  0  0  0  0  0  0  0  0  0  0
   -9.0712   -2.4910   -2.5742 C   0  0  0  0  0  0  0  0  0  0  0  0
  -10.1329   -2.8446   -3.4000 N   0  0  0  0  0  0  0  0  0  0  0  0
  -11.0467   -3.8643   -2.9895 C   0  0  0  0  0  0  0  0  0  0  0  0
  -10.5645   -5.0810   -2.4857 C   0  0  0  0  0  0  0  0  0  0  0  0
  -11.4474   -6.1197   -2.1800 C   0  0  0  0  0  0  0  0  0  0  0  0
  -12.8184   -5.9399   -2.3490 C   0  0  0  0  0  0  0  0  0  0  0  0
  -13.3094   -4.7185   -2.8080 C   0  0  0  0  0  0  0  0  0  0  0  0
  -12.4281   -3.6822   -3.1267 C   0  0  0  0  0  0  0  0  0  0  0  0
  -10.2201   -2.3545   -4.7136 C   0  0  0  0  0  0  0  0  0  0  0  0
  -11.0372   -2.6859   -5.5731 O   0  0  0  0  0  0  0  0  0  0  0  0
   -9.1920   -1.3332   -5.0815 C   0  0  0  0  0  0  0  0  0  0  0  0
   -8.2141   -0.9901   -4.2306 C   0  0  0  0  0  0  0  0  0  0  0  0
   -4.7658   -2.8941    0.3447 C   0  0  0  0  0  0  0  0  0  0  0  0
   -3.4143   -2.4761    0.7217 C   0  0  0  0  0  0  0  0  0  0  0  0
   -2.7836   -3.0084    1.6279 O   0  0  0  0  0  0  0  0  0  0  0  0
   -1.8151    0.5482   -0.7714 C   0  0  0  0  0  0  0  0  0  0  0  0
   -0.6271    1.2949   -0.7957 C   0  0  0  0  0  0  0  0  0  0  0  0
   -0.6288    2.6618   -1.4234 C   0  0  0  0  0  0  0  0  0  0  0  0
    2.6512    0.9084    0.2021 H   0  0  0  0  0  0  0  0  0  0  0  0
    1.7559    2.4277    0.3131 H   0  0  0  0  0  0  0  0  0  0  0  0
    2.1387    1.7167   -1.2814 H   0  0  0  0  0  0  0  0  0  0  0  0
    1.3791   -0.9752    0.7858 H   0  0  0  0  0  0  0  0  0  0  0  0
   -0.7222   -2.2073    0.9010 H   0  0  0  0  0  0  0  0  0  0  0  0
   -3.9188   -1.0807   -1.9418 H   0  0  0  0  0  0  0  0  0  0  0  0
   -6.3660   -0.6318   -2.4272 H   0  0  0  0  0  0  0  0  0  0  0  0
   -9.0749   -2.9677   -1.5995 H   0  0  0  0  0  0  0  0  0  0  0  0
   -9.4951   -5.2482   -2.3720 H   0  0  0  0  0  0  0  0  0  0  0  0
  -11.0647   -7.0689   -1.8137 H   0  0  0  0  0  0  0  0  0  0  0  0
  -13.5062   -6.7515   -2.1256 H   0  0  0  0  0  0  0  0  0  0  0  0
  -14.3776   -4.5784   -2.9474 H   0  0  0  0  0  0  0  0  0  0  0  0
  -12.8242   -2.7406   -3.4930 H   0  0  0  0  0  0  0  0  0  0  0  0
   -9.2931   -0.9011   -6.0699 H   0  0  0  0  0  0  0  0  0  0  0  0
   -7.4829   -0.2487   -4.5292 H   0  0  0  0  0  0  0  0  0  0  0  0
   -5.2884   -3.7228    0.7862 H   0  0  0  0  0  0  0  0  0  0  0  0
   -2.7117    0.9639   -1.2230 H   0  0  0  0  0  0  0  0  0  0  0  0
   -1.6223    2.9339   -1.7963 H   0  0  0  0  0  0  0  0  0  0  0  0
    0.0629    2.6959   -2.2701 H   0  0  0  0  0  0  0  0  0  0  0  0
   -0.3402    3.4179   -0.6857 H   0  0  0  0  0  0  0  0  0  0  0  0
  1  2  1  0  0  0  0
  1 31  1  0  0  0  0
  1 32  1  0  0  0  0
  1 33  1  0  0  0  0
  2  3  2  0  0  0  0
  2 29  1  0  0  0  0
  3  4  1  0  0  0  0
  3 34  1  0  0  0  0
  4  5  2  0  0  0  0
  4 35  1  0  0  0  0
  5  6  1  0  0  0  0
  5 28  1  0  0  0  0
  6  7  1  0  0  0  0
  6 26  1  0  0  0  0
  7  8  1  0  0  0  0
  7 36  1  0  0  0  0
  8  9  1  0  0  0  0
  8 25  2  0  0  0  0
  9 10  2  0  0  0  0
  9 11  1  0  0  0  0
 11 12  1  0  0  0  0
 11 37  1  0  0  0  0
 12 13  2  0  0  0  0
 12 24  1  0  0  0  0
 13 14  1  0  0  0  0
 13 38  1  0  0  0  0
 14 15  1  0  0  0  0
 14 21  1  0  0  0  0
 15 16  2  0  0  0  0
 15 20  1  0  0  0  0
 16 17  1  0  0  0  0
 16 39  1  0  0  0  0
 17 18  2  0  0  0  0
 17 40  1  0  0  0  0
 18 19  1  0  0  0  0
 18 41  1  0  0  0  0
 19 20  2  0  0  0  0
 19 42  1  0  0  0  0
 20 43  1  0  0  0  0
 21 22  2  0  0  0  0
 21 23  1  0  0  0  0
 23 24  2  0  0  0  0
 23 44  1  0  0  0  0
 24 45  1  0  0  0  0
 25 26  1  0  0  0  0
 25 46  1  0  0  0  0
 26 27  2  0  0  0  0
 28 29  2  0  0  0  0
 28 47  1  0  0  0  0
 29 30  1  0  0  0  0
 30 48  1  0  0  0  0
 30 49  1  0  0  0  0
 30 50  1  0  0  0  0
M  END
$$$$
