
 OpenBabel01122422473D

 49 52  0  0  0  0  0  0  0  0999 V2000
    2.7025    0.6681    0.9591 O   0  0  0  0  0  0  0  0  0  0  0  0
    2.4021   -0.2710    0.2092 C   0  0  0  0  0  0  0  0  0  0  0  0
    0.9433   -0.6189   -0.0824 C   0  0  0  0  0  0  0  0  0  0  0  0
    0.1161    0.4014   -0.8218 C   0  0  0  0  0  0  0  0  0  0  0  0
    0.5736    1.6638   -1.2198 C   0  0  0  0  0  0  0  0  0  0  0  0
   -0.2945    2.5297   -1.8949 C   0  0  0  0  0  0  0  0  0  0  0  0
   -1.5835    2.1032   -2.1546 C   0  0  0  0  0  0  0  0  0  0  0  0
   -2.0646    0.9029   -1.7909 N   0  0  0  0  0  0  0  0  0  0  0  0
   -1.2085    0.0870   -1.1324 C   0  0  0  0  0  0  0  0  0  0  0  0
    3.2981   -1.1214   -0.4173 N   0  0  0  0  0  0  0  0  0  0  0  0
    4.7019   -1.1568   -0.2589 C   0  0  0  0  0  0  0  0  0  0  0  0
    5.4199   -0.4791    0.7292 C   0  0  0  0  0  0  0  0  0  0  0  0
    6.8228   -0.5705    0.7988 C   0  0  0  0  0  0  0  0  0  0  0  0
    7.5134   -1.3526   -0.1300 C   0  0  0  0  0  0  0  0  0  0  0  0
    8.9985   -1.5624   -0.1171 C   0  0  0  0  0  0  0  0  0  0  0  0
    9.4574   -2.5464   -0.6734 O   0  0  0  0  0  0  0  0  0  0  0  0
    9.7957   -0.5709    0.4127 N   0  0  0  0  0  0  0  0  0  0  0  0
   11.2265   -0.6934    0.2383 C   0  0  0  0  0  0  0  0  0  0  0  0
   11.9087    0.3959    0.9826 C   0  0  0  0  0  0  0  0  0  0  0  0
   12.5961    0.2633    2.1763 C   0  0  0  0  0  0  0  0  0  0  0  0
   13.1171    1.4854    2.4896 N   0  0  0  0  0  0  0  0  0  0  0  0
   12.4479    2.4469    1.7701 C   0  0  0  0  0  0  0  0  0  0  0  0
   12.2867    3.8163    1.9943 C   0  0  0  0  0  0  0  0  0  0  0  0
   11.6376    4.5455    0.9949 C   0  0  0  0  0  0  0  0  0  0  0  0
   11.2890    3.9388   -0.2067 C   0  0  0  0  0  0  0  0  0  0  0  0
   10.7545    4.6864   -1.1825 F   0  0  0  0  0  0  0  0  0  0  0  0
   11.4306    2.5653   -0.4073 C   0  0  0  0  0  0  0  0  0  0  0  0
   11.9207    1.7919    0.6573 C   0  0  0  0  0  0  0  0  0  0  0  0
    6.7913   -2.0632   -1.0957 C   0  0  0  0  0  0  0  0  0  0  0  0
    5.4015   -1.9707   -1.1550 C   0  0  0  0  0  0  0  0  0  0  0  0
    0.4717   -0.8187    0.8891 H   0  0  0  0  0  0  0  0  0  0  0  0
    0.9029   -1.5581   -0.6490 H   0  0  0  0  0  0  0  0  0  0  0  0
    1.5807    1.9981   -1.0060 H   0  0  0  0  0  0  0  0  0  0  0  0
    0.0433    3.5148   -2.2049 H   0  0  0  0  0  0  0  0  0  0  0  0
   -2.2890    2.7496   -2.6754 H   0  0  0  0  0  0  0  0  0  0  0  0
   -1.6359   -0.8724   -0.8473 H   0  0  0  0  0  0  0  0  0  0  0  0
    2.9235   -1.7352   -1.1217 H   0  0  0  0  0  0  0  0  0  0  0  0
    4.9085    0.1235    1.4813 H   0  0  0  0  0  0  0  0  0  0  0  0
    7.3459   -0.0504    1.5924 H   0  0  0  0  0  0  0  0  0  0  0  0
    9.4068    0.3125    0.7053 H   0  0  0  0  0  0  0  0  0  0  0  0
   11.4562   -0.6458   -0.8305 H   0  0  0  0  0  0  0  0  0  0  0  0
   11.5414   -1.6767    0.6081 H   0  0  0  0  0  0  0  0  0  0  0  0
   12.7843   -0.6022    2.8008 H   0  0  0  0  0  0  0  0  0  0  0  0
   13.8219    1.6669    3.1916 H   0  0  0  0  0  0  0  0  0  0  0  0
   12.5959    4.2830    2.9242 H   0  0  0  0  0  0  0  0  0  0  0  0
   11.4137    5.5974    1.1437 H   0  0  0  0  0  0  0  0  0  0  0  0
   11.1156    2.1181   -1.3440 H   0  0  0  0  0  0  0  0  0  0  0  0
    7.3125   -2.6952   -1.8159 H   0  0  0  0  0  0  0  0  0  0  0  0
    4.8834   -2.5332   -1.9286 H   0  0  0  0  0  0  0  0  0  0  0  0
  1  2  2  0  0  0  0
  2  3  1  0  0  0  0
  2 10  1  0  0  0  0
  3  4  1  0  0  0  0
  3 31  1  0  0  0  0
  3 32  1  0  0  0  0
  4  5  2  0  0  0  0
  4  9  1  0  0  0  0
  5  6  1  0  0  0  0
  5 33  1  0  0  0  0
  6  7  2  0  0  0  0
  6 34  1  0  0  0  0
  7  8  1  0  0  0  0
  7 35  1  0  0  0  0
  8  9  2  0  0  0  0
  9 36  1  0  0  0  0
 10 11  1  0  0  0  0
 10 37  1  0  0  0  0
 11 12  2  0  0  0  0
 11 30  1  0  0  0  0
 12 13  1  0  0  0  0
 12 38  1  0  0  0  0
 13 14  2  0  0  0  0
 13 39  1  0  0  0  0
 14 15  1  0  0  0  0
 14 29  1  0  0  0  0
 15 16  2  0  0  0  0
 15 17  1  0  0  0  0
 17 18  1  0  0  0  0
 17 40  1  0  0  0  0
 18 19  1  0  0  0  0
 18 41  1  0  0  0  0
 18 42  1  0  0  0  0
 19 20  2  0  0  0  0
 19 28  1  0  0  0  0
 20 21  1  0  0  0  0
 20 43  1  0  0  0  0
 21 22  1  0  0  0  0
 21 44  1  0  0  0  0
 22 23  2  0  0  0  0
 22 28  1  0  0  0  0
 23 24  1  0  0  0  0
 23 45  1  0  0  0  0
 24 25  2  0  0  0  0
 24 46  1  0  0  0  0
 25 26  1  0  0  0  0
 25 27  1  0  0  0  0
 27 28  2  0  0  0  0
 27 47  1  0  0  0  0
 29 30  2  0  0  0  0
 29 48  1  0  0  0  0
 30 49  1  0  0  0  0
M  END
$$$$
