
 OpenBabel01122422473D

 45 48  0  0  0  0  0  0  0  0999 V2000
   -2.8459   -1.3412   -0.2703 C   0  0  0  0  0  0  0  0  0  0  0  0
   -2.3817   -0.2000   -1.0265 N   0  0  0  0  0  0  0  0  0  0  0  0
   -2.4480    1.0415   -0.4939 N   0  0  0  0  0  0  0  0  0  0  0  0
   -1.9835    1.8452   -1.4712 C   0  0  0  0  0  0  0  0  0  0  0  0
   -1.8905    3.3092   -1.3170 C   0  0  0  0  0  0  0  0  0  0  0  0
   -1.4546    4.0240   -2.2247 O   0  0  0  0  0  0  0  0  0  0  0  0
   -2.3351    3.9154    0.0139 C   0  0  0  0  0  0  0  0  0  0  0  0
   -2.1682    5.3485    0.0202 O   0  0  0  0  0  0  0  0  0  0  0  0
   -3.3011    6.0837    0.1227 C   0  0  0  0  0  0  0  0  0  0  0  0
   -4.4314    5.6365    0.2567 O   0  0  0  0  0  0  0  0  0  0  0  0
   -3.0229    7.5360    0.0628 C   0  0  0  0  0  0  0  0  0  0  0  0
   -1.7559    8.0911   -0.1614 C   0  0  0  0  0  0  0  0  0  0  0  0
   -1.5828    9.4874   -0.2461 C   0  0  0  0  0  0  0  0  0  0  0  0
   -0.2697   10.1136   -0.5277 C   0  0  0  0  0  0  0  0  0  0  0  0
    0.0681   11.3820   -0.0195 C   0  0  0  0  0  0  0  0  0  0  0  0
    1.2909   11.9765   -0.3281 C   0  0  0  0  0  0  0  0  0  0  0  0
    1.5704   13.1928    0.1585 F   0  0  0  0  0  0  0  0  0  0  0  0
    2.2194   11.3340   -1.1325 C   0  0  0  0  0  0  0  0  0  0  0  0
    1.9203   10.0738   -1.6367 C   0  0  0  0  0  0  0  0  0  0  0  0
    0.6890    9.4754   -1.3404 C   0  0  0  0  0  0  0  0  0  0  0  0
   -2.7420   10.2534   -0.0737 C   0  0  0  0  0  0  0  0  0  0  0  0
   -3.9801    9.7566    0.1653 N   0  0  0  0  0  0  0  0  0  0  0  0
   -4.0913    8.4096    0.2208 C   0  0  0  0  0  0  0  0  0  0  0  0
   -1.6069    1.0860   -2.6229 C   0  0  0  0  0  0  0  0  0  0  0  0
   -1.0757    1.3788   -3.8945 C   0  0  0  0  0  0  0  0  0  0  0  0
   -0.8277    0.3343   -4.7918 C   0  0  0  0  0  0  0  0  0  0  0  0
   -1.0988   -0.9855   -4.4390 C   0  0  0  0  0  0  0  0  0  0  0  0
   -1.6269   -1.3016   -3.1838 C   0  0  0  0  0  0  0  0  0  0  0  0
   -1.8713   -0.2409   -2.2980 C   0  0  0  0  0  0  0  0  0  0  0  0
   -3.1502   -1.0244    0.7298 H   0  0  0  0  0  0  0  0  0  0  0  0
   -2.0301   -2.0658   -0.1988 H   0  0  0  0  0  0  0  0  0  0  0  0
   -3.6974   -1.7784   -0.7993 H   0  0  0  0  0  0  0  0  0  0  0  0
   -1.6931    3.5222    0.8079 H   0  0  0  0  0  0  0  0  0  0  0  0
   -3.3679    3.6120    0.2119 H   0  0  0  0  0  0  0  0  0  0  0  0
   -0.9007    7.4297   -0.2732 H   0  0  0  0  0  0  0  0  0  0  0  0
   -0.6061   11.9351    0.6286 H   0  0  0  0  0  0  0  0  0  0  0  0
    3.1630   11.8181   -1.3615 H   0  0  0  0  0  0  0  0  0  0  0  0
    2.6365    9.5553   -2.2696 H   0  0  0  0  0  0  0  0  0  0  0  0
    0.4836    8.4997   -1.7785 H   0  0  0  0  0  0  0  0  0  0  0  0
   -2.7206   11.3391   -0.1412 H   0  0  0  0  0  0  0  0  0  0  0  0
   -5.1009    8.0465    0.3991 H   0  0  0  0  0  0  0  0  0  0  0  0
   -0.8602    2.4056   -4.1803 H   0  0  0  0  0  0  0  0  0  0  0  0
   -0.4197    0.5597   -5.7745 H   0  0  0  0  0  0  0  0  0  0  0  0
   -0.8979   -1.7825   -5.1523 H   0  0  0  0  0  0  0  0  0  0  0  0
   -1.8373   -2.3322   -2.9164 H   0  0  0  0  0  0  0  0  0  0  0  0
  1  2  1  0  0  0  0
  1 30  1  0  0  0  0
  1 31  1  0  0  0  0
  1 32  1  0  0  0  0
  2  3  1  0  0  0  0
  2 29  1  0  0  0  0
  3  4  2  0  0  0  0
  4  5  1  0  0  0  0
  4 24  1  0  0  0  0
  5  6  2  0  0  0  0
  5  7  1  0  0  0  0
  7  8  1  0  0  0  0
  7 33  1  0  0  0  0
  7 34  1  0  0  0  0
  8  9  1  0  0  0  0
  9 10  2  0  0  0  0
  9 11  1  0  0  0  0
 11 12  2  0  0  0  0
 11 23  1  0  0  0  0
 12 13  1  0  0  0  0
 12 35  1  0  0  0  0
 13 14  1  0  0  0  0
 13 21  2  0  0  0  0
 14 15  2  0  0  0  0
 14 20  1  0  0  0  0
 15 16  1  0  0  0  0
 15 36  1  0  0  0  0
 16 17  1  0  0  0  0
 16 18  2  0  0  0  0
 18 19  1  0  0  0  0
 18 37  1  0  0  0  0
 19 20  2  0  0  0  0
 19 38  1  0  0  0  0
 20 39  1  0  0  0  0
 21 22  1  0  0  0  0
 21 40  1  0  0  0  0
 22 23  2  0  0  0  0
 23 41  1  0  0  0  0
 24 25  2  0  0  0  0
 24 29  1  0  0  0  0
 25 26  1  0  0  0  0
 25 42  1  0  0  0  0
 26 27  2  0  0  0  0
 26 43  1  0  0  0  0
 27 28  1  0  0  0  0
 27 44  1  0  0  0  0
 28 29  2  0  0  0  0
 28 45  1  0  0  0  0
M  END
$$$$
