
 OpenBabel01122422473D

 41 44  0  0  0  0  0  0  0  0999 V2000
    1.1715    0.6335    0.6301 O   0  0  0  0  0  0  0  0  0  0  0  0
    2.2747    0.2508    0.2655 C   0  0  0  0  0  0  0  0  0  0  0  0
    2.7830    0.3873   -1.0140 N   0  0  0  0  0  0  0  0  0  0  0  0
    2.0993    0.9383   -2.1144 C   0  0  0  0  0  0  0  0  0  0  0  0
    0.9516    1.7220   -2.0152 C   0  0  0  0  0  0  0  0  0  0  0  0
    0.3150    2.1700   -3.1712 C   0  0  0  0  0  0  0  0  0  0  0  0
    0.8650    1.8285   -4.3938 C   0  0  0  0  0  0  0  0  0  0  0  0
    0.2254    2.3089   -5.5288 O   0  0  0  0  0  0  0  0  0  0  0  0
    1.0223    2.5688   -6.6216 C   0  0  0  0  0  0  0  0  0  0  0  0
    0.5079    2.2507   -7.8780 C   0  0  0  0  0  0  0  0  0  0  0  0
    1.2789    2.4806   -9.0193 C   0  0  0  0  0  0  0  0  0  0  0  0
    2.5561    3.0327   -8.9030 C   0  0  0  0  0  0  0  0  0  0  0  0
    3.0558    3.3818   -7.6504 C   0  0  0  0  0  0  0  0  0  0  0  0
    2.2800    3.1722   -6.5136 C   0  0  0  0  0  0  0  0  0  0  0  0
    1.9780    1.0705   -4.5293 N   0  0  0  0  0  0  0  0  0  0  0  0
    2.5784    0.6662   -3.3921 C   0  0  0  0  0  0  0  0  0  0  0  0
    3.1335   -0.4666    1.2372 C   0  0  0  0  0  0  0  0  0  0  0  0
    4.1476   -1.3353    0.8347 C   0  0  0  0  0  0  0  0  0  0  0  0
    4.4167   -1.5239   -0.4672 F   0  0  0  0  0  0  0  0  0  0  0  0
    4.9152   -2.0339    1.7643 C   0  0  0  0  0  0  0  0  0  0  0  0
    4.6782   -1.8753    3.1351 C   0  0  0  0  0  0  0  0  0  0  0  0
    5.4737   -2.5984    4.1128 C   0  0  0  0  0  0  0  0  0  0  0  0
    6.4724   -3.4423    3.8042 N   0  0  0  0  0  0  0  0  0  0  0  0
    6.8521   -3.8173    5.0336 N   0  0  0  0  0  0  0  0  0  0  0  0
    6.1768   -3.2711    6.0468 N   0  0  0  0  0  0  0  0  0  0  0  0
    5.2820   -2.4816    5.4688 N   0  0  0  0  0  0  0  0  0  0  0  0
    3.6645   -1.0031    3.5470 C   0  0  0  0  0  0  0  0  0  0  0  0
    2.9050   -0.3104    2.6050 C   0  0  0  0  0  0  0  0  0  0  0  0
    1.9677    0.5291    3.0661 F   0  0  0  0  0  0  0  0  0  0  0  0
    3.6542   -0.0876   -1.2270 H   0  0  0  0  0  0  0  0  0  0  0  0
    0.5381    2.0126   -1.0546 H   0  0  0  0  0  0  0  0  0  0  0  0
   -0.5775    2.7817   -3.1111 H   0  0  0  0  0  0  0  0  0  0  0  0
   -0.4799    1.8085   -7.9683 H   0  0  0  0  0  0  0  0  0  0  0  0
    0.8889    2.2192   -9.9990 H   0  0  0  0  0  0  0  0  0  0  0  0
    3.1644    3.1911   -9.7890 H   0  0  0  0  0  0  0  0  0  0  0  0
    4.0502    3.8069   -7.5514 H   0  0  0  0  0  0  0  0  0  0  0  0
    2.6786    3.4484   -5.5415 H   0  0  0  0  0  0  0  0  0  0  0  0
    3.4761    0.0761   -3.5514 H   0  0  0  0  0  0  0  0  0  0  0  0
    5.6926   -2.7035    1.4034 H   0  0  0  0  0  0  0  0  0  0  0  0
    7.6100   -4.4755    5.1905 H   0  0  0  0  0  0  0  0  0  0  0  0
    3.4472   -0.8446    4.6011 H   0  0  0  0  0  0  0  0  0  0  0  0
  1  2  2  0  0  0  0
  2  3  1  0  0  0  0
  2 17  1  0  0  0  0
  3  4  1  0  0  0  0
  3 30  1  0  0  0  0
  4  5  2  0  0  0  0
  4 16  1  0  0  0  0
  5  6  1  0  0  0  0
  5 31  1  0  0  0  0
  6  7  2  0  0  0  0
  6 32  1  0  0  0  0
  7  8  1  0  0  0  0
  7 15  1  0  0  0  0
  8  9  1  0  0  0  0
  9 10  2  0  0  0  0
  9 14  1  0  0  0  0
 10 11  1  0  0  0  0
 10 33  1  0  0  0  0
 11 12  2  0  0  0  0
 11 34  1  0  0  0  0
 12 13  1  0  0  0  0
 12 35  1  0  0  0  0
 13 14  2  0  0  0  0
 13 36  1  0  0  0  0
 14 37  1  0  0  0  0
 15 16  2  0  0  0  0
 16 38  1  0  0  0  0
 17 18  2  0  0  0  0
 17 28  1  0  0  0  0
 18 19  1  0  0  0  0
 18 20  1  0  0  0  0
 20 21  2  0  0  0  0
 20 39  1  0  0  0  0
 21 22  1  0  0  0  0
 21 27  1  0  0  0  0
 22 23  2  0  0  0  0
 22 26  1  0  0  0  0
 23 24  1  0  0  0  0
 24 25  1  0  0  0  0
 24 40  1  0  0  0  0
 25 26  2  0  0  0  0
 27 28  2  0  0  0  0
 27 41  1  0  0  0  0
 28 29  1  0  0  0  0
M  END
$$$$
