
 OpenBabel01122422473D

 42 45  0  0  0  0  0  0  0  0999 V2000
    1.3141   -0.6962    0.4315 O   0  0  0  0  0  0  0  0  0  0  0  0
    2.3661   -0.1699    0.0518 C   0  0  0  0  0  0  0  0  0  0  0  0
    2.8372   -0.6039   -1.2909 C   0  0  0  0  0  0  0  0  0  0  0  0
    2.6910   -1.9579   -1.6286 C   0  0  0  0  0  0  0  0  0  0  0  0
    2.0425   -2.8184   -0.8273 F   0  0  0  0  0  0  0  0  0  0  0  0
    3.2454   -2.4703   -2.7988 C   0  0  0  0  0  0  0  0  0  0  0  0
    3.0817   -3.7896   -3.1208 O   0  0  0  0  0  0  0  0  0  0  0  0
    3.9820   -1.6383   -3.6282 C   0  0  0  0  0  0  0  0  0  0  0  0
    4.6215   -2.1310   -4.6973 F   0  0  0  0  0  0  0  0  0  0  0  0
    4.0604   -0.2753   -3.3603 C   0  0  0  0  0  0  0  0  0  0  0  0
    3.4247    0.2532   -2.2300 C   0  0  0  0  0  0  0  0  0  0  0  0
    3.0352    0.7703    0.8619 N   0  0  0  0  0  0  0  0  0  0  0  0
    2.4670    1.0194    2.1922 C   0  0  0  0  0  0  0  0  0  0  0  0
    2.2850    2.4856    2.5388 C   0  0  0  0  0  0  0  0  0  0  0  0
    1.4612    2.8159    3.3992 O   0  0  0  0  0  0  0  0  0  0  0  0
    3.1784    3.3575    1.9247 N   0  0  0  0  0  0  0  0  0  0  0  0
    3.1076    4.7494    2.2059 C   0  0  0  0  0  0  0  0  0  0  0  0
    3.2433    5.2167    3.5218 C   0  0  0  0  0  0  0  0  0  0  0  0
    3.2527    6.5882    3.7773 C   0  0  0  0  0  0  0  0  0  0  0  0
    3.0911    7.4948    2.7302 C   0  0  0  0  0  0  0  0  0  0  0  0
    2.9059    7.0367    1.4281 C   0  0  0  0  0  0  0  0  0  0  0  0
    2.9179    5.6662    1.1651 C   0  0  0  0  0  0  0  0  0  0  0  0
    4.2216    2.8833    1.0586 C   0  0  0  0  0  0  0  0  0  0  0  0
    5.2964    3.7117    0.6693 C   0  0  0  0  0  0  0  0  0  0  0  0
    6.2957    3.2520   -0.1841 C   0  0  0  0  0  0  0  0  0  0  0  0
    6.2956    1.9256   -0.5868 C   0  0  0  0  0  0  0  0  0  0  0  0
    5.2777    1.0702   -0.1590 C   0  0  0  0  0  0  0  0  0  0  0  0
    4.1910    1.5518    0.5857 C   0  0  0  0  0  0  0  0  0  0  0  0
    2.4445   -4.1690   -2.4853 H   0  0  0  0  0  0  0  0  0  0  0  0
    4.6325    0.3657   -4.0251 H   0  0  0  0  0  0  0  0  0  0  0  0
    3.4615    1.3267   -2.0628 H   0  0  0  0  0  0  0  0  0  0  0  0
    3.1502    0.5787    2.9290 H   0  0  0  0  0  0  0  0  0  0  0  0
    1.4945    0.5300    2.3121 H   0  0  0  0  0  0  0  0  0  0  0  0
    3.3744    4.5194    4.3449 H   0  0  0  0  0  0  0  0  0  0  0  0
    3.3857    6.9484    4.7945 H   0  0  0  0  0  0  0  0  0  0  0  0
    3.0958    8.5631    2.9332 H   0  0  0  0  0  0  0  0  0  0  0  0
    2.7656    7.7430    0.6167 H   0  0  0  0  0  0  0  0  0  0  0  0
    2.7678    5.3187    0.1442 H   0  0  0  0  0  0  0  0  0  0  0  0
    5.3865    4.7332    1.0273 H   0  0  0  0  0  0  0  0  0  0  0  0
    7.0862    3.9277   -0.5053 H   0  0  0  0  0  0  0  0  0  0  0  0
    7.0867    1.5565   -1.2335 H   0  0  0  0  0  0  0  0  0  0  0  0
    5.3482    0.0218   -0.4358 H   0  0  0  0  0  0  0  0  0  0  0  0
  1  2  2  0  0  0  0
  2  3  1  0  0  0  0
  2 12  1  0  0  0  0
  3  4  2  0  0  0  0
  3 11  1  0  0  0  0
  4  5  1  0  0  0  0
  4  6  1  0  0  0  0
  6  7  1  0  0  0  0
  6  8  2  0  0  0  0
  7 29  1  0  0  0  0
  8  9  1  0  0  0  0
  8 10  1  0  0  0  0
 10 11  2  0  0  0  0
 10 30  1  0  0  0  0
 11 31  1  0  0  0  0
 12 13  1  0  0  0  0
 12 28  1  0  0  0  0
 13 14  1  0  0  0  0
 13 32  1  0  0  0  0
 13 33  1  0  0  0  0
 14 15  2  0  0  0  0
 14 16  1  0  0  0  0
 16 17  1  0  0  0  0
 16 23  1  0  0  0  0
 17 18  2  0  0  0  0
 17 22  1  0  0  0  0
 18 19  1  0  0  0  0
 18 34  1  0  0  0  0
 19 20  2  0  0  0  0
 19 35  1  0  0  0  0
 20 21  1  0  0  0  0
 20 36  1  0  0  0  0
 21 22  2  0  0  0  0
 21 37  1  0  0  0  0
 22 38  1  0  0  0  0
 23 24  2  0  0  0  0
 23 28  1  0  0  0  0
 24 25  1  0  0  0  0
 24 39  1  0  0  0  0
 25 26  2  0  0  0  0
 25 40  1  0  0  0  0
 26 27  1  0  0  0  0
 26 41  1  0  0  0  0
 27 28  2  0  0  0  0
 27 42  1  0  0  0  0
M  END
$$$$
