
 OpenBabel01122422483D

 40 43  0  0  0  0  0  0  0  0999 V2000
    1.0059    0.1011   -0.0736 O   0  0  0  0  0  0  0  0  0  0  0  0
    2.2327    0.1181   -0.0434 C   0  0  0  0  0  0  0  0  0  0  0  0
    3.0028   -0.1937   -1.1396 N   0  0  0  0  0  0  0  0  0  0  0  0
    2.3966   -0.6825   -2.3611 C   0  0  0  0  0  0  0  0  0  0  0  0
    2.1923   -2.1624   -2.3105 C   0  0  0  0  0  0  0  0  0  0  0  0
    3.2107   -3.0360   -2.2663 N   0  0  0  0  0  0  0  0  0  0  0  0
    2.5643   -4.2781   -2.2540 O   0  0  0  0  0  0  0  0  0  0  0  0
    1.2209   -4.0247   -2.2923 C   0  0  0  0  0  0  0  0  0  0  0  0
    0.3123   -5.1657   -2.2642 C   0  0  0  0  0  0  0  0  0  0  0  0
   -1.0714   -4.9371   -2.3067 C   0  0  0  0  0  0  0  0  0  0  0  0
   -1.9615   -6.0044   -2.2476 C   0  0  0  0  0  0  0  0  0  0  0  0
   -3.2789   -5.7655   -2.2798 F   0  0  0  0  0  0  0  0  0  0  0  0
   -1.5072   -7.3128   -2.1487 C   0  0  0  0  0  0  0  0  0  0  0  0
   -0.1368   -7.5599   -2.1179 C   0  0  0  0  0  0  0  0  0  0  0  0
    0.7683   -6.4926   -2.1775 C   0  0  0  0  0  0  0  0  0  0  0  0
    0.9446   -2.7385   -2.3329 N   0  0  0  0  0  0  0  0  0  0  0  0
    2.9850    0.4065    1.1822 C   0  0  0  0  0  0  0  0  0  0  0  0
    4.1917    0.9972    1.1266 N   0  0  0  0  0  0  0  0  0  0  0  0
    4.5690    1.2075    2.4397 O   0  0  0  0  0  0  0  0  0  0  0  0
    3.6282    0.6974    3.2690 C   0  0  0  0  0  0  0  0  0  0  0  0
    2.6064    0.1380    2.5361 C   0  0  0  0  0  0  0  0  0  0  0  0
    1.4822   -0.5941    3.1043 C   0  0  0  0  0  0  0  0  0  0  0  0
    0.9140   -1.6680    2.3960 C   0  0  0  0  0  0  0  0  0  0  0  0
   -0.1704   -2.3787    2.9155 C   0  0  0  0  0  0  0  0  0  0  0  0
   -0.6767   -2.0400    4.1620 C   0  0  0  0  0  0  0  0  0  0  0  0
   -1.7091   -2.7298    4.6625 F   0  0  0  0  0  0  0  0  0  0  0  0
   -0.1231   -1.0026    4.8972 C   0  0  0  0  0  0  0  0  0  0  0  0
    0.9466   -0.2857    4.3644 C   0  0  0  0  0  0  0  0  0  0  0  0
    1.4538    0.7172    5.0980 F   0  0  0  0  0  0  0  0  0  0  0  0
    4.0066   -0.2675   -1.0127 H   0  0  0  0  0  0  0  0  0  0  0  0
    3.0592   -0.4184   -3.1899 H   0  0  0  0  0  0  0  0  0  0  0  0
    1.4357   -0.1796   -2.5168 H   0  0  0  0  0  0  0  0  0  0  0  0
   -1.4684   -3.9273   -2.3799 H   0  0  0  0  0  0  0  0  0  0  0  0
   -2.2229   -8.1276   -2.0956 H   0  0  0  0  0  0  0  0  0  0  0  0
    0.2283   -8.5818   -2.0426 H   0  0  0  0  0  0  0  0  0  0  0  0
    1.8339   -6.7143   -2.1487 H   0  0  0  0  0  0  0  0  0  0  0  0
    3.8423    0.7949    4.3242 H   0  0  0  0  0  0  0  0  0  0  0  0
    1.2963   -1.9727    1.4245 H   0  0  0  0  0  0  0  0  0  0  0  0
   -0.6188   -3.1899    2.3494 H   0  0  0  0  0  0  0  0  0  0  0  0
   -0.5216   -0.7511    5.8730 H   0  0  0  0  0  0  0  0  0  0  0  0
  1  2  2  0  0  0  0
  2  3  1  0  0  0  0
  2 17  1  0  0  0  0
  3  4  1  0  0  0  0
  3 30  1  0  0  0  0
  4  5  1  0  0  0  0
  4 31  1  0  0  0  0
  4 32  1  0  0  0  0
  5  6  2  0  0  0  0
  5 16  1  0  0  0  0
  6  7  1  0  0  0  0
  7  8  1  0  0  0  0
  8  9  1  0  0  0  0
  8 16  2  0  0  0  0
  9 10  2  0  0  0  0
  9 15  1  0  0  0  0
 10 11  1  0  0  0  0
 10 33  1  0  0  0  0
 11 12  1  0  0  0  0
 11 13  2  0  0  0  0
 13 14  1  0  0  0  0
 13 34  1  0  0  0  0
 14 15  2  0  0  0  0
 14 35  1  0  0  0  0
 15 36  1  0  0  0  0
 17 18  2  0  0  0  0
 17 21  1  0  0  0  0
 18 19  1  0  0  0  0
 19 20  1  0  0  0  0
 20 21  2  0  0  0  0
 20 37  1  0  0  0  0
 21 22  1  0  0  0  0
 22 23  2  0  0  0  0
 22 28  1  0  0  0  0
 23 24  1  0  0  0  0
 23 38  1  0  0  0  0
 24 25  2  0  0  0  0
 24 39  1  0  0  0  0
 25 26  1  0  0  0  0
 25 27  1  0  0  0  0
 27 28  2  0  0  0  0
 27 40  1  0  0  0  0
 28 29  1  0  0  0  0
M  END
$$$$
