
 OpenBabel01122422483D

 40 43  0  0  0  0  0  0  0  0999 V2000
    1.0246   -0.1623   -0.1103 O   0  0  0  0  0  0  0  0  0  0  0  0
    2.2478   -0.0688   -0.0567 C   0  0  0  0  0  0  0  0  0  0  0  0
    2.9536    0.7837    0.7721 N   0  0  0  0  0  0  0  0  0  0  0  0
    2.3784    1.6236    1.7480 C   0  0  0  0  0  0  0  0  0  0  0  0
    1.0745    1.4544    2.2174 C   0  0  0  0  0  0  0  0  0  0  0  0
    0.5283    2.3219    3.1689 C   0  0  0  0  0  0  0  0  0  0  0  0
    1.2670    3.3885    3.6944 C   0  0  0  0  0  0  0  0  0  0  0  0
    0.6981    4.2661    4.6454 N   0  0  0  0  0  0  0  0  0  0  0  0
   -0.5195    4.2121    5.2719 C   0  0  0  0  0  0  0  0  0  0  0  0
   -0.5615    4.9567    6.3828 C   0  0  0  0  0  0  0  0  0  0  0  0
    0.7868    5.5587    6.4664 C   0  0  0  0  0  0  0  0  0  0  0  0
    1.1208    6.4113    7.2692 O   0  0  0  0  0  0  0  0  0  0  0  0
    1.5427    5.0038    5.4537 N   0  0  0  0  0  0  0  0  0  0  0  0
    2.5807    3.5380    3.2081 C   0  0  0  0  0  0  0  0  0  0  0  0
    3.3413    4.5659    3.6236 F   0  0  0  0  0  0  0  0  0  0  0  0
    3.1411    2.6653    2.2680 C   0  0  0  0  0  0  0  0  0  0  0  0
    3.0725   -0.8727   -0.9401 C   0  0  0  0  0  0  0  0  0  0  0  0
    2.5869   -1.6878   -1.9356 C   0  0  0  0  0  0  0  0  0  0  0  0
    3.6771   -2.3356   -2.4535 N   0  0  0  0  0  0  0  0  0  0  0  0
    3.7034   -3.3457   -3.4411 C   0  0  0  0  0  0  0  0  0  0  0  0
    2.5366   -3.7340   -4.1126 C   0  0  0  0  0  0  0  0  0  0  0  0
    1.3573   -3.1380   -3.8949 F   0  0  0  0  0  0  0  0  0  0  0  0
    2.5476   -4.7578   -5.0582 C   0  0  0  0  0  0  0  0  0  0  0  0
    3.7341   -5.4196   -5.3533 C   0  0  0  0  0  0  0  0  0  0  0  0
    4.9059   -5.0410   -4.7033 C   0  0  0  0  0  0  0  0  0  0  0  0
    4.8901   -4.0101   -3.7591 C   0  0  0  0  0  0  0  0  0  0  0  0
    6.0527   -3.7111   -3.1643 F   0  0  0  0  0  0  0  0  0  0  0  0
    4.7915   -1.8703   -1.8265 N   0  0  0  0  0  0  0  0  0  0  0  0
    4.4327   -0.9779   -0.9071 N   0  0  0  0  0  0  0  0  0  0  0  0
    3.9493    0.8642    0.5914 H   0  0  0  0  0  0  0  0  0  0  0  0
    0.4440    0.6367    1.8800 H   0  0  0  0  0  0  0  0  0  0  0  0
   -0.4917    2.1301    3.4881 H   0  0  0  0  0  0  0  0  0  0  0  0
   -1.3307    3.6187    4.8771 H   0  0  0  0  0  0  0  0  0  0  0  0
   -1.3610    5.1311    7.0759 H   0  0  0  0  0  0  0  0  0  0  0  0
    2.3755    5.4447    5.0833 H   0  0  0  0  0  0  0  0  0  0  0  0
    4.1584    2.8470    1.9363 H   0  0  0  0  0  0  0  0  0  0  0  0
    1.5686   -1.8593   -2.2434 H   0  0  0  0  0  0  0  0  0  0  0  0
    1.6208   -5.0304   -5.5558 H   0  0  0  0  0  0  0  0  0  0  0  0
    3.7437   -6.2244   -6.0845 H   0  0  0  0  0  0  0  0  0  0  0  0
    5.8422   -5.5487   -4.9186 H   0  0  0  0  0  0  0  0  0  0  0  0
  1  2  2  0  0  0  0
  2  3  1  0  0  0  0
  2 17  1  0  0  0  0
  3  4  1  0  0  0  0
  3 30  1  0  0  0  0
  4  5  2  0  0  0  0
  4 16  1  0  0  0  0
  5  6  1  0  0  0  0
  5 31  1  0  0  0  0
  6  7  2  0  0  0  0
  6 32  1  0  0  0  0
  7  8  1  0  0  0  0
  7 14  1  0  0  0  0
  8  9  1  0  0  0  0
  8 13  1  0  0  0  0
  9 10  2  0  0  0  0
  9 33  1  0  0  0  0
 10 11  1  0  0  0  0
 10 34  1  0  0  0  0
 11 12  2  0  0  0  0
 11 13  1  0  0  0  0
 13 35  1  0  0  0  0
 14 15  1  0  0  0  0
 14 16  2  0  0  0  0
 16 36  1  0  0  0  0
 17 18  2  0  0  0  0
 17 29  1  0  0  0  0
 18 19  1  0  0  0  0
 18 37  1  0  0  0  0
 19 20  1  0  0  0  0
 19 28  1  0  0  0  0
 20 21  2  0  0  0  0
 20 26  1  0  0  0  0
 21 22  1  0  0  0  0
 21 23  1  0  0  0  0
 23 24  2  0  0  0  0
 23 38  1  0  0  0  0
 24 25  1  0  0  0  0
 24 39  1  0  0  0  0
 25 26  2  0  0  0  0
 25 40  1  0  0  0  0
 26 27  1  0  0  0  0
 28 29  2  0  0  0  0
M  END
$$$$
