
 OpenBabel01122422483D

 49 52  0  0  0  0  0  0  0  0999 V2000
    1.2027    0.5580   -0.5103 C   0  0  0  0  0  0  0  0  0  0  0  0
    2.3114   -0.1290    0.0565 O   0  0  0  0  0  0  0  0  0  0  0  0
    3.0098   -0.9445   -0.7927 C   0  0  0  0  0  0  0  0  0  0  0  0
    2.6750   -1.2291   -2.1115 C   0  0  0  0  0  0  0  0  0  0  0  0
    3.4781   -2.0778   -2.8682 C   0  0  0  0  0  0  0  0  0  0  0  0
    4.6371   -2.6252   -2.3135 C   0  0  0  0  0  0  0  0  0  0  0  0
    5.0223   -2.3260   -0.9948 C   0  0  0  0  0  0  0  0  0  0  0  0
    6.2977   -2.8082   -0.4450 C   0  0  0  0  0  0  0  0  0  0  0  0
    7.4334   -3.0011   -1.2134 C   0  0  0  0  0  0  0  0  0  0  0  0
    8.6253   -3.4115   -0.7433 N   0  0  0  0  0  0  0  0  0  0  0  0
    8.6988   -3.6274    0.5844 C   0  0  0  0  0  0  0  0  0  0  0  0
   10.0314   -4.0693    1.1247 C   0  0  0  0  0  0  0  0  0  0  0  0
   11.0401   -3.6954    0.5152 O   0  0  0  0  0  0  0  0  0  0  0  0
   10.1082   -4.9133    2.2462 N   0  0  0  0  0  0  0  0  0  0  0  0
    9.0164   -5.4990    3.0233 C   0  0  0  0  0  0  0  0  0  0  0  0
   11.3748   -5.4585    2.5675 C   0  0  0  0  0  0  0  0  0  0  0  0
   12.4195   -4.6248    2.9220 C   0  0  0  0  0  0  0  0  0  0  0  0
   13.6285   -5.1966    3.3072 C   0  0  0  0  0  0  0  0  0  0  0  0
   13.7679   -6.5791    3.2871 C   0  0  0  0  0  0  0  0  0  0  0  0
   15.0198   -7.2769    3.6343 C   0  0  0  0  0  0  0  0  0  0  0  0
   14.9901   -8.5914    4.1395 C   0  0  0  0  0  0  0  0  0  0  0  0
   16.1699   -9.2695    4.4658 C   0  0  0  0  0  0  0  0  0  0  0  0
   17.3991   -8.6468    4.2911 C   0  0  0  0  0  0  0  0  0  0  0  0
   17.4572   -7.3527    3.7886 C   0  0  0  0  0  0  0  0  0  0  0  0
   16.2754   -6.6757    3.4628 C   0  0  0  0  0  0  0  0  0  0  0  0
   12.7171   -7.3606    2.9526 N   0  0  0  0  0  0  0  0  0  0  0  0
   11.5085   -6.8000    2.6246 N   0  0  0  0  0  0  0  0  0  0  0  0
    7.6806   -3.4418    1.4463 N   0  0  0  0  0  0  0  0  0  0  0  0
    6.5060   -3.0612    0.9023 C   0  0  0  0  0  0  0  0  0  0  0  0
    4.1675   -1.5026   -0.2404 C   0  0  0  0  0  0  0  0  0  0  0  0
    0.7728    1.2026    0.2611 H   0  0  0  0  0  0  0  0  0  0  0  0
    0.4290   -0.1488   -0.8272 H   0  0  0  0  0  0  0  0  0  0  0  0
    1.5204    1.1970   -1.3415 H   0  0  0  0  0  0  0  0  0  0  0  0
    1.7961   -0.8055   -2.5852 H   0  0  0  0  0  0  0  0  0  0  0  0
    3.2128   -2.3030   -3.8970 H   0  0  0  0  0  0  0  0  0  0  0  0
    5.2366   -3.2823   -2.9386 H   0  0  0  0  0  0  0  0  0  0  0  0
    7.4330   -2.7985   -2.2863 H   0  0  0  0  0  0  0  0  0  0  0  0
    8.0275   -5.1406    2.7639 H   0  0  0  0  0  0  0  0  0  0  0  0
    9.1929   -5.2443    4.0758 H   0  0  0  0  0  0  0  0  0  0  0  0
    9.0070   -6.5870    2.9139 H   0  0  0  0  0  0  0  0  0  0  0  0
   12.2891   -3.5487    2.9462 H   0  0  0  0  0  0  0  0  0  0  0  0
   14.4358   -4.5509    3.6349 H   0  0  0  0  0  0  0  0  0  0  0  0
   14.0405   -9.1043    4.2834 H   0  0  0  0  0  0  0  0  0  0  0  0
   16.1179  -10.2860    4.8507 H   0  0  0  0  0  0  0  0  0  0  0  0
   18.3174   -9.1763    4.5391 H   0  0  0  0  0  0  0  0  0  0  0  0
   18.4175   -6.8646    3.6453 H   0  0  0  0  0  0  0  0  0  0  0  0
   16.3644   -5.6715    3.0509 H   0  0  0  0  0  0  0  0  0  0  0  0
    5.7028   -2.9659    1.6284 H   0  0  0  0  0  0  0  0  0  0  0  0
    4.4089   -1.2417    0.7879 H   0  0  0  0  0  0  0  0  0  0  0  0
  1  2  1  0  0  0  0
  1 31  1  0  0  0  0
  1 32  1  0  0  0  0
  1 33  1  0  0  0  0
  2  3  1  0  0  0  0
  3  4  2  0  0  0  0
  3 30  1  0  0  0  0
  4  5  1  0  0  0  0
  4 34  1  0  0  0  0
  5  6  2  0  0  0  0
  5 35  1  0  0  0  0
  6  7  1  0  0  0  0
  6 36  1  0  0  0  0
  7  8  1  0  0  0  0
  7 30  2  0  0  0  0
  8  9  2  0  0  0  0
  8 29  1  0  0  0  0
  9 10  1  0  0  0  0
  9 37  1  0  0  0  0
 10 11  2  0  0  0  0
 11 12  1  0  0  0  0
 11 28  1  0  0  0  0
 12 13  2  0  0  0  0
 12 14  1  0  0  0  0
 14 15  1  0  0  0  0
 14 16  1  0  0  0  0
 15 38  1  0  0  0  0
 15 39  1  0  0  0  0
 15 40  1  0  0  0  0
 16 17  2  0  0  0  0
 16 27  1  0  0  0  0
 17 18  1  0  0  0  0
 17 41  1  0  0  0  0
 18 19  2  0  0  0  0
 18 42  1  0  0  0  0
 19 20  1  0  0  0  0
 19 26  1  0  0  0  0
 20 21  2  0  0  0  0
 20 25  1  0  0  0  0
 21 22  1  0  0  0  0
 21 43  1  0  0  0  0
 22 23  2  0  0  0  0
 22 44  1  0  0  0  0
 23 24  1  0  0  0  0
 23 45  1  0  0  0  0
 24 25  2  0  0  0  0
 24 46  1  0  0  0  0
 25 47  1  0  0  0  0
 26 27  2  0  0  0  0
 28 29  2  0  0  0  0
 29 48  1  0  0  0  0
 30 49  1  0  0  0  0
M  END
$$$$
