
 OpenBabel01122422483D

 40 43  0  0  0  0  0  0  0  0999 V2000
    4.9117    1.9231    1.5249 O   0  0  0  0  0  0  0  0  0  0  0  0
    4.2611    1.1925    0.7847 C   0  0  0  0  0  0  0  0  0  0  0  0
    3.0680    0.5646    1.0807 N   0  0  0  0  0  0  0  0  0  0  0  0
    2.3532    0.7125    2.2923 C   0  0  0  0  0  0  0  0  0  0  0  0
    2.6618    1.6967    3.2210 C   0  0  0  0  0  0  0  0  0  0  0  0
    1.9383    1.8262    4.4087 C   0  0  0  0  0  0  0  0  0  0  0  0
    0.8518    0.9998    4.7109 C   0  0  0  0  0  0  0  0  0  0  0  0
    0.0660    1.2098    5.9129 N   0  0  0  0  0  0  0  0  0  0  0  0
   -0.6954    0.1789    6.4697 C   0  0  0  0  0  0  0  0  0  0  0  0
   -1.4679    0.3475    7.5507 C   0  0  0  0  0  0  0  0  0  0  0  0
   -1.5448    1.6271    8.1937 C   0  0  0  0  0  0  0  0  0  0  0  0
   -0.8220    2.6468    7.7249 C   0  0  0  0  0  0  0  0  0  0  0  0
    0.0388    2.4961    6.5183 C   0  0  0  0  0  0  0  0  0  0  0  0
    0.6109    3.5186    6.1442 O   0  0  0  0  0  0  0  0  0  0  0  0
    0.5578   -0.0175    3.7850 C   0  0  0  0  0  0  0  0  0  0  0  0
    1.2949   -0.1460    2.5950 C   0  0  0  0  0  0  0  0  0  0  0  0
    0.9636   -1.1259    1.7380 F   0  0  0  0  0  0  0  0  0  0  0  0
    4.8573    0.8549   -0.5402 C   0  0  0  0  0  0  0  0  0  0  0  0
    4.1050    0.1108   -1.3863 N   0  0  0  0  0  0  0  0  0  0  0  0
    4.7267   -0.4111   -2.4624 C   0  0  0  0  0  0  0  0  0  0  0  0
    4.0338   -1.2046   -3.3620 C   0  0  0  0  0  0  0  0  0  0  0  0
    4.5825   -1.9120   -4.3818 N   0  0  0  0  0  0  0  0  0  0  0  0
    5.9145   -1.8117   -4.5301 C   0  0  0  0  0  0  0  0  0  0  0  0
    6.7012   -0.9780   -3.7576 C   0  0  0  0  0  0  0  0  0  0  0  0
    6.1011   -0.2397   -2.7165 C   0  0  0  0  0  0  0  0  0  0  0  0
    6.7981    0.6467   -1.8726 C   0  0  0  0  0  0  0  0  0  0  0  0
    8.4603    1.0533   -2.1315 Cl  0  0  0  0  0  0  0  0  0  0  0  0
    6.1751    1.2056   -0.7721 C   0  0  0  0  0  0  0  0  0  0  0  0
    2.7276   -0.1140    0.4053 H   0  0  0  0  0  0  0  0  0  0  0  0
    3.4541    2.4190    3.0596 H   0  0  0  0  0  0  0  0  0  0  0  0
    2.2822    2.6013    5.0875 H   0  0  0  0  0  0  0  0  0  0  0  0
   -0.6269   -0.8046    6.0211 H   0  0  0  0  0  0  0  0  0  0  0  0
   -2.0335   -0.4738    7.9712 H   0  0  0  0  0  0  0  0  0  0  0  0
   -2.1843    1.7482    9.0623 H   0  0  0  0  0  0  0  0  0  0  0  0
   -0.8391    3.6304    8.1760 H   0  0  0  0  0  0  0  0  0  0  0  0
   -0.2705   -0.7033    3.9247 H   0  0  0  0  0  0  0  0  0  0  0  0
    2.9562   -1.3143   -3.2653 H   0  0  0  0  0  0  0  0  0  0  0  0
    6.3510   -2.4415   -5.3000 H   0  0  0  0  0  0  0  0  0  0  0  0
    7.7708   -0.9443   -3.9376 H   0  0  0  0  0  0  0  0  0  0  0  0
    6.7183    1.8375   -0.0760 H   0  0  0  0  0  0  0  0  0  0  0  0
  1  2  2  0  0  0  0
  2  3  1  0  0  0  0
  2 18  1  0  0  0  0
  3  4  1  0  0  0  0
  3 29  1  0  0  0  0
  4  5  2  0  0  0  0
  4 16  1  0  0  0  0
  5  6  1  0  0  0  0
  5 30  1  0  0  0  0
  6  7  2  0  0  0  0
  6 31  1  0  0  0  0
  7  8  1  0  0  0  0
  7 15  1  0  0  0  0
  8  9  1  0  0  0  0
  8 13  1  0  0  0  0
  9 10  2  0  0  0  0
  9 32  1  0  0  0  0
 10 11  1  0  0  0  0
 10 33  1  0  0  0  0
 11 12  2  0  0  0  0
 11 34  1  0  0  0  0
 12 13  1  0  0  0  0
 12 35  1  0  0  0  0
 13 14  2  0  0  0  0
 15 16  2  0  0  0  0
 15 36  1  0  0  0  0
 16 17  1  0  0  0  0
 18 19  2  0  0  0  0
 18 28  1  0  0  0  0
 19 20  1  0  0  0  0
 20 21  2  0  0  0  0
 20 25  1  0  0  0  0
 21 22  1  0  0  0  0
 21 37  1  0  0  0  0
 22 23  2  0  0  0  0
 23 24  1  0  0  0  0
 23 38  1  0  0  0  0
 24 25  2  0  0  0  0
 24 39  1  0  0  0  0
 25 26  1  0  0  0  0
 26 27  1  0  0  0  0
 26 28  2  0  0  0  0
 28 40  1  0  0  0  0
M  END
$$$$
