
 OpenBabel01122422483D

 48 51  0  0  0  0  0  0  0  0999 V2000
    1.9339   -0.5204    0.5353 O   0  0  0  0  0  0  0  0  0  0  0  0
    3.1354   -0.6675    0.3196 C   0  0  0  0  0  0  0  0  0  0  0  0
    3.7709   -0.0641   -0.9185 C   0  0  0  0  0  0  0  0  0  0  0  0
    4.4797   -1.1046   -1.7730 C   0  0  0  0  0  0  0  0  0  0  0  0
    4.9376   -0.5612   -3.0977 C   0  0  0  0  0  0  0  0  0  0  0  0
    4.2305   -0.7197   -4.2298 C   0  0  0  0  0  0  0  0  0  0  0  0
    4.7775   -0.3035   -5.5185 C   0  0  0  0  0  0  0  0  0  0  0  0
    4.0621   -0.4901   -6.7039 C   0  0  0  0  0  0  0  0  0  0  0  0
    4.6363   -0.1388   -7.9274 C   0  0  0  0  0  0  0  0  0  0  0  0
    5.9250    0.3967   -7.9682 C   0  0  0  0  0  0  0  0  0  0  0  0
    6.6411    0.5964   -6.7882 C   0  0  0  0  0  0  0  0  0  0  0  0
    6.0681    0.2464   -5.5716 C   0  0  0  0  0  0  0  0  0  0  0  0
    6.7756    0.4301   -4.3686 N   0  0  0  0  0  0  0  0  0  0  0  0
    6.2887    0.0761   -3.1391 C   0  0  0  0  0  0  0  0  0  0  0  0
    6.9341    0.2563   -2.1122 O   0  0  0  0  0  0  0  0  0  0  0  0
    4.0376   -1.2733    1.1935 N   0  0  0  0  0  0  0  0  0  0  0  0
    3.8875   -1.4046    2.5490 C   0  0  0  0  0  0  0  0  0  0  0  0
    2.8077   -0.9735    3.2463 C   0  0  0  0  0  0  0  0  0  0  0  0
    3.0674   -0.4358    4.5100 N   0  0  0  0  0  0  0  0  0  0  0  0
    2.9984    1.0148    4.6166 C   0  0  0  0  0  0  0  0  0  0  0  0
    3.9743    1.7212    5.3444 C   0  0  0  0  0  0  0  0  0  0  0  0
    3.9860    3.1164    5.3991 C   0  0  0  0  0  0  0  0  0  0  0  0
    3.0217    3.8442    4.7159 C   0  0  0  0  0  0  0  0  0  0  0  0
    2.0878    3.1761    3.9297 C   0  0  0  0  0  0  0  0  0  0  0  0
    2.0858    1.7754    3.8642 C   0  0  0  0  0  0  0  0  0  0  0  0
    3.9964   -1.1075    5.3397 C   0  0  0  0  0  0  0  0  0  0  0  0
    4.1493   -0.9480    6.5476 O   0  0  0  0  0  0  0  0  0  0  0  0
    4.8573   -2.1188    4.6093 C   0  0  0  0  0  0  0  0  0  0  0  0
    5.0862   -1.6931    3.3467 C   0  0  0  0  0  0  0  0  0  0  0  0
    4.4523    0.7371   -0.6042 H   0  0  0  0  0  0  0  0  0  0  0  0
    2.9674    0.4126   -1.4956 H   0  0  0  0  0  0  0  0  0  0  0  0
    3.8076   -1.9553   -1.9339 H   0  0  0  0  0  0  0  0  0  0  0  0
    5.3406   -1.5181   -1.2345 H   0  0  0  0  0  0  0  0  0  0  0  0
    3.2580   -1.1950   -4.2175 H   0  0  0  0  0  0  0  0  0  0  0  0
    3.0627   -0.9179   -6.6858 H   0  0  0  0  0  0  0  0  0  0  0  0
    4.0800   -0.2899   -8.8498 H   0  0  0  0  0  0  0  0  0  0  0  0
    6.3739    0.6550   -8.9272 H   0  0  0  0  0  0  0  0  0  0  0  0
    7.6443    1.0118   -6.8354 H   0  0  0  0  0  0  0  0  0  0  0  0
    7.6974    0.8372   -4.3902 H   0  0  0  0  0  0  0  0  0  0  0  0
    4.9846   -1.4007    0.8528 H   0  0  0  0  0  0  0  0  0  0  0  0
    1.8559   -0.7339    2.7911 H   0  0  0  0  0  0  0  0  0  0  0  0
    4.7877    1.2090    5.8506 H   0  0  0  0  0  0  0  0  0  0  0  0
    4.7550    3.6236    5.9760 H   0  0  0  0  0  0  0  0  0  0  0  0
    3.0085    4.9277    4.7890 H   0  0  0  0  0  0  0  0  0  0  0  0
    1.3556    3.7470    3.3639 H   0  0  0  0  0  0  0  0  0  0  0  0
    1.3543    1.3062    3.2115 H   0  0  0  0  0  0  0  0  0  0  0  0
    4.3517   -3.0713    4.7729 H   0  0  0  0  0  0  0  0  0  0  0  0
    5.7896   -0.8589    3.2321 H   0  0  0  0  0  0  0  0  0  0  0  0
  1  2  2  0  0  0  0
  2  3  1  0  0  0  0
  2 16  1  0  0  0  0
  3  4  1  0  0  0  0
  3 30  1  0  0  0  0
  3 31  1  0  0  0  0
  4  5  1  0  0  0  0
  4 32  1  0  0  0  0
  4 33  1  0  0  0  0
  5  6  2  0  0  0  0
  5 14  1  0  0  0  0
  6  7  1  0  0  0  0
  6 34  1  0  0  0  0
  7  8  2  0  0  0  0
  7 12  1  0  0  0  0
  8  9  1  0  0  0  0
  8 35  1  0  0  0  0
  9 10  2  0  0  0  0
  9 36  1  0  0  0  0
 10 11  1  0  0  0  0
 10 37  1  0  0  0  0
 11 12  2  0  0  0  0
 11 38  1  0  0  0  0
 12 13  1  0  0  0  0
 13 14  1  0  0  0  0
 13 39  1  0  0  0  0
 14 15  2  0  0  0  0
 16 17  1  0  0  0  0
 16 40  1  0  0  0  0
 17 18  2  0  0  0  0
 17 29  1  0  0  0  0
 18 19  1  0  0  0  0
 18 41  1  0  0  0  0
 19 20  1  0  0  0  0
 19 26  1  0  0  0  0
 20 21  2  0  0  0  0
 20 25  1  0  0  0  0
 21 22  1  0  0  0  0
 21 42  1  0  0  0  0
 22 23  2  0  0  0  0
 22 43  1  0  0  0  0
 23 24  1  0  0  0  0
 23 44  1  0  0  0  0
 24 25  2  0  0  0  0
 24 45  1  0  0  0  0
 25 46  1  0  0  0  0
 26 27  2  0  0  0  0
 26 28  1  0  0  0  0
 28 29  2  0  0  0  0
 28 47  1  0  0  0  0
 29 48  1  0  0  0  0
M  END
$$$$
