
 OpenBabel01122422483D

 48 51  0  0  0  0  0  0  0  0999 V2000
    5.0839    4.7881    2.2068 C   0  0  0  0  0  0  0  0  0  0  0  0
    5.4434    4.0191    1.0621 O   0  0  0  0  0  0  0  0  0  0  0  0
    4.4985    3.1356    0.6090 C   0  0  0  0  0  0  0  0  0  0  0  0
    3.2423    2.9206    1.1962 C   0  0  0  0  0  0  0  0  0  0  0  0
    2.3365    2.0000    0.6696 C   0  0  0  0  0  0  0  0  0  0  0  0
    2.6553    1.2566   -0.4670 C   0  0  0  0  0  0  0  0  0  0  0  0
    3.9061    1.4431   -1.0782 C   0  0  0  0  0  0  0  0  0  0  0  0
    4.7940    2.3686   -0.5346 C   0  0  0  0  0  0  0  0  0  0  0  0
    5.9226    2.3340   -1.3255 N   0  0  0  0  0  0  0  0  0  0  0  0
    5.7885    1.4173   -2.3540 C   0  0  0  0  0  0  0  0  0  0  0  0
    6.8525    1.1790   -3.3137 C   0  0  0  0  0  0  0  0  0  0  0  0
    7.9369    1.7412   -3.1952 O   0  0  0  0  0  0  0  0  0  0  0  0
    6.5148    0.3221   -4.3493 N   0  0  0  0  0  0  0  0  0  0  0  0
    7.3497   -0.0845   -5.4138 C   0  0  0  0  0  0  0  0  0  0  0  0
    8.7271    0.0961   -5.4394 C   0  0  0  0  0  0  0  0  0  0  0  0
    9.4615   -0.2748   -6.5709 C   0  0  0  0  0  0  0  0  0  0  0  0
    8.8029   -0.8321   -7.6606 C   0  0  0  0  0  0  0  0  0  0  0  0
    9.5636   -1.1036   -8.8090 N   0  0  0  0  0  0  0  0  0  0  0  0
    9.0625   -1.6531   -9.9725 C   0  0  0  0  0  0  0  0  0  0  0  0
    7.9390   -2.1120  -10.1501 O   0  0  0  0  0  0  0  0  0  0  0  0
   10.0103   -1.7079  -11.1257 C   0  0  0  0  0  0  0  0  0  0  0  0
    9.8307   -2.7298  -12.0705 C   0  0  0  0  0  0  0  0  0  0  0  0
   10.6439   -2.7788  -13.1973 C   0  0  0  0  0  0  0  0  0  0  0  0
   10.4855   -3.7458  -14.1452 O   0  0  0  0  0  0  0  0  0  0  0  0
   11.6375   -1.8286  -13.4001 C   0  0  0  0  0  0  0  0  0  0  0  0
   11.8198   -0.8075  -12.4672 C   0  0  0  0  0  0  0  0  0  0  0  0
   11.0059   -0.7410  -11.3313 C   0  0  0  0  0  0  0  0  0  0  0  0
    7.4801   -1.0637   -7.6346 N   0  0  0  0  0  0  0  0  0  0  0  0
    6.7885   -0.7012   -6.5268 C   0  0  0  0  0  0  0  0  0  0  0  0
    4.5319    0.8576   -2.2099 C   0  0  0  0  0  0  0  0  0  0  0  0
    5.9174    5.4544    2.4481 H   0  0  0  0  0  0  0  0  0  0  0  0
    4.9124    4.1449    3.0773 H   0  0  0  0  0  0  0  0  0  0  0  0
    4.2081    5.4148    2.0033 H   0  0  0  0  0  0  0  0  0  0  0  0
    2.9337    3.4645    2.0829 H   0  0  0  0  0  0  0  0  0  0  0  0
    1.3720    1.8579    1.1514 H   0  0  0  0  0  0  0  0  0  0  0  0
    1.9453    0.5421   -0.8692 H   0  0  0  0  0  0  0  0  0  0  0  0
    6.7481    2.9006   -1.1712 H   0  0  0  0  0  0  0  0  0  0  0  0
    5.5437    0.0521   -4.4177 H   0  0  0  0  0  0  0  0  0  0  0  0
    9.2628    0.5201   -4.5966 H   0  0  0  0  0  0  0  0  0  0  0  0
   10.5322   -0.1028   -6.5810 H   0  0  0  0  0  0  0  0  0  0  0  0
   10.5466   -0.8861   -8.7613 H   0  0  0  0  0  0  0  0  0  0  0  0
    9.0460   -3.4664  -11.9178 H   0  0  0  0  0  0  0  0  0  0  0  0
    9.7050   -4.2793  -13.9175 H   0  0  0  0  0  0  0  0  0  0  0  0
   12.2547   -1.8735  -14.2937 H   0  0  0  0  0  0  0  0  0  0  0  0
   12.5813   -0.0510  -12.6406 H   0  0  0  0  0  0  0  0  0  0  0  0
   11.1341    0.0942  -10.6496 H   0  0  0  0  0  0  0  0  0  0  0  0
    5.7242   -0.9099   -6.5920 H   0  0  0  0  0  0  0  0  0  0  0  0
    4.0899    0.0936   -2.8303 H   0  0  0  0  0  0  0  0  0  0  0  0
  1  2  1  0  0  0  0
  1 31  1  0  0  0  0
  1 32  1  0  0  0  0
  1 33  1  0  0  0  0
  2  3  1  0  0  0  0
  3  4  2  0  0  0  0
  3  8  1  0  0  0  0
  4  5  1  0  0  0  0
  4 34  1  0  0  0  0
  5  6  2  0  0  0  0
  5 35  1  0  0  0  0
  6  7  1  0  0  0  0
  6 36  1  0  0  0  0
  7  8  2  0  0  0  0
  7 30  1  0  0  0  0
  8  9  1  0  0  0  0
  9 10  1  0  0  0  0
  9 37  1  0  0  0  0
 10 11  1  0  0  0  0
 10 30  2  0  0  0  0
 11 12  2  0  0  0  0
 11 13  1  0  0  0  0
 13 14  1  0  0  0  0
 13 38  1  0  0  0  0
 14 15  2  0  0  0  0
 14 29  1  0  0  0  0
 15 16  1  0  0  0  0
 15 39  1  0  0  0  0
 16 17  2  0  0  0  0
 16 40  1  0  0  0  0
 17 18  1  0  0  0  0
 17 28  1  0  0  0  0
 18 19  1  0  0  0  0
 18 41  1  0  0  0  0
 19 20  2  0  0  0  0
 19 21  1  0  0  0  0
 21 22  2  0  0  0  0
 21 27  1  0  0  0  0
 22 23  1  0  0  0  0
 22 42  1  0  0  0  0
 23 24  1  0  0  0  0
 23 25  2  0  0  0  0
 24 43  1  0  0  0  0
 25 26  1  0  0  0  0
 25 44  1  0  0  0  0
 26 27  2  0  0  0  0
 26 45  1  0  0  0  0
 27 46  1  0  0  0  0
 28 29  2  0  0  0  0
 29 47  1  0  0  0  0
 30 48  1  0  0  0  0
M  END
$$$$
