
 OpenBabel01122422453D

 44 47  0  0  0  0  0  0  0  0999 V2000
    5.0971    0.5725    2.2565 O   0  0  0  0  0  0  0  0  0  0  0  0
    4.3800    0.3838    1.2831 C   0  0  0  0  0  0  0  0  0  0  0  0
    3.0939   -0.1177    1.2744 N   0  0  0  0  0  0  0  0  0  0  0  0
    2.3522   -0.3540    2.4430 C   0  0  0  0  0  0  0  0  0  0  0  0
    1.2076   -1.1352    2.3512 C   0  0  0  0  0  0  0  0  0  0  0  0
    0.4614   -1.3945    3.5068 C   0  0  0  0  0  0  0  0  0  0  0  0
    0.8552   -0.8521    4.7254 C   0  0  0  0  0  0  0  0  0  0  0  0
    0.1840   -1.0489    5.9501 N   0  0  0  0  0  0  0  0  0  0  0  0
   -0.9712   -1.7768    6.1629 C   0  0  0  0  0  0  0  0  0  0  0  0
   -1.6222   -2.3449    5.2903 O   0  0  0  0  0  0  0  0  0  0  0  0
   -1.4446   -1.8930    7.5758 C   0  0  0  0  0  0  0  0  0  0  0  0
   -2.6125   -2.6308    7.8248 C   0  0  0  0  0  0  0  0  0  0  0  0
   -3.0841   -2.8479    9.1259 C   0  0  0  0  0  0  0  0  0  0  0  0
   -2.3349   -2.3151   10.1793 C   0  0  0  0  0  0  0  0  0  0  0  0
   -2.5217   -2.4042   11.5410 N   0  0  0  0  0  0  0  0  0  0  0  0
   -1.5162   -1.7455   12.1986 C   0  0  0  0  0  0  0  0  0  0  0  0
   -0.6828   -1.1935   11.2534 C   0  0  0  0  0  0  0  0  0  0  0  0
   -1.1804   -1.5596    9.9727 C   0  0  0  0  0  0  0  0  0  0  0  0
   -0.7461   -1.3356    8.6536 C   0  0  0  0  0  0  0  0  0  0  0  0
    0.3627   -0.6031    8.4528 F   0  0  0  0  0  0  0  0  0  0  0  0
    2.0037   -0.0707    4.7119 C   0  0  0  0  0  0  0  0  0  0  0  0
    2.7439    0.1846    3.6097 N   0  0  0  0  0  0  0  0  0  0  0  0
    4.9804    0.6526   -0.0480 C   0  0  0  0  0  0  0  0  0  0  0  0
    6.3451    0.3742   -0.2033 C   0  0  0  0  0  0  0  0  0  0  0  0
    6.9849    0.7194   -1.3859 C   0  0  0  0  0  0  0  0  0  0  0  0
    8.3118    0.4675   -1.5705 O   0  0  0  0  0  0  0  0  0  0  0  0
    6.2889    1.3486   -2.4112 C   0  0  0  0  0  0  0  0  0  0  0  0
    4.9258    1.6157   -2.2643 C   0  0  0  0  0  0  0  0  0  0  0  0
    4.2632    1.2634   -1.0838 C   0  0  0  0  0  0  0  0  0  0  0  0
    2.7000   -0.4386    0.4014 H   0  0  0  0  0  0  0  0  0  0  0  0
    0.8928   -1.5735    1.4107 H   0  0  0  0  0  0  0  0  0  0  0  0
   -0.4097   -2.0340    3.4199 H   0  0  0  0  0  0  0  0  0  0  0  0
    0.6136   -0.6117    6.7609 H   0  0  0  0  0  0  0  0  0  0  0  0
   -3.1679   -3.0639    6.9926 H   0  0  0  0  0  0  0  0  0  0  0  0
   -3.9841   -3.4303    9.2998 H   0  0  0  0  0  0  0  0  0  0  0  0
   -3.2783   -2.9061   11.9865 H   0  0  0  0  0  0  0  0  0  0  0  0
   -1.4780   -1.7291   13.2797 H   0  0  0  0  0  0  0  0  0  0  0  0
    0.2071   -0.6105   11.4545 H   0  0  0  0  0  0  0  0  0  0  0  0
    2.3898    0.3943    5.6157 H   0  0  0  0  0  0  0  0  0  0  0  0
    6.8917   -0.0865    0.6156 H   0  0  0  0  0  0  0  0  0  0  0  0
    8.6562    0.0256   -0.7754 H   0  0  0  0  0  0  0  0  0  0  0  0
    6.8127    1.6436   -3.3167 H   0  0  0  0  0  0  0  0  0  0  0  0
    4.3902    2.1254   -3.0618 H   0  0  0  0  0  0  0  0  0  0  0  0
    3.2145    1.5217   -0.9658 H   0  0  0  0  0  0  0  0  0  0  0  0
  1  2  2  0  0  0  0
  2  3  1  0  0  0  0
  2 23  1  0  0  0  0
  3  4  1  0  0  0  0
  3 30  1  0  0  0  0
  4  5  2  0  0  0  0
  4 22  1  0  0  0  0
  5  6  1  0  0  0  0
  5 31  1  0  0  0  0
  6  7  2  0  0  0  0
  6 32  1  0  0  0  0
  7  8  1  0  0  0  0
  7 21  1  0  0  0  0
  8  9  1  0  0  0  0
  8 33  1  0  0  0  0
  9 10  2  0  0  0  0
  9 11  1  0  0  0  0
 11 12  2  0  0  0  0
 11 19  1  0  0  0  0
 12 13  1  0  0  0  0
 12 34  1  0  0  0  0
 13 14  2  0  0  0  0
 13 35  1  0  0  0  0
 14 15  1  0  0  0  0
 14 18  1  0  0  0  0
 15 16  1  0  0  0  0
 15 36  1  0  0  0  0
 16 17  2  0  0  0  0
 16 37  1  0  0  0  0
 17 18  1  0  0  0  0
 17 38  1  0  0  0  0
 18 19  2  0  0  0  0
 19 20  1  0  0  0  0
 21 22  2  0  0  0  0
 21 39  1  0  0  0  0
 23 24  2  0  0  0  0
 23 29  1  0  0  0  0
 24 25  1  0  0  0  0
 24 40  1  0  0  0  0
 25 26  1  0  0  0  0
 25 27  2  0  0  0  0
 26 41  1  0  0  0  0
 27 28  1  0  0  0  0
 27 42  1  0  0  0  0
 28 29  2  0  0  0  0
 28 43  1  0  0  0  0
 29 44  1  0  0  0  0
M  END
$$$$
