
 OpenBabel01122422483D

 45 48  0  0  0  0  0  0  0  0999 V2000
    1.1138    0.1444   -0.0768 C   0  0  0  0  0  0  0  0  0  0  0  0
    2.5731    0.1189   -0.0324 N   0  0  0  0  0  0  0  0  0  0  0  0
    3.2606    0.9463    0.8801 C   0  0  0  0  0  0  0  0  0  0  0  0
    2.6674    1.7570    1.5981 O   0  0  0  0  0  0  0  0  0  0  0  0
    4.7547    0.8360    1.0804 C   0  0  0  0  0  0  0  0  0  0  0  0
    5.6427    0.4316    0.0732 C   0  0  0  0  0  0  0  0  0  0  0  0
    6.9671    0.1103    0.3599 C   0  0  0  0  0  0  0  0  0  0  0  0
    7.4589    0.3395    1.6365 C   0  0  0  0  0  0  0  0  0  0  0  0
    8.8405   -0.0168    1.9898 C   0  0  0  0  0  0  0  0  0  0  0  0
    9.5657   -0.6060    1.1976 O   0  0  0  0  0  0  0  0  0  0  0  0
    9.2419    0.3371    3.2556 N   0  0  0  0  0  0  0  0  0  0  0  0
    8.4875    0.9996    4.1835 N   0  0  0  0  0  0  0  0  0  0  0  0
    7.2577    1.2738    3.8717 C   0  0  0  0  0  0  0  0  0  0  0  0
    6.6406    0.9168    2.5968 C   0  0  0  0  0  0  0  0  0  0  0  0
    5.2847    1.1498    2.3411 C   0  0  0  0  0  0  0  0  0  0  0  0
    3.1594   -0.9596   -0.7301 C   0  0  0  0  0  0  0  0  0  0  0  0
    3.5244   -2.1297   -0.0609 C   0  0  0  0  0  0  0  0  0  0  0  0
    4.2925   -3.0873   -0.7255 C   0  0  0  0  0  0  0  0  0  0  0  0
    4.6625   -2.8890   -2.0619 C   0  0  0  0  0  0  0  0  0  0  0  0
    5.4595   -3.7570   -2.7727 O   0  0  0  0  0  0  0  0  0  0  0  0
    5.2568   -5.1125   -2.6481 C   0  0  0  0  0  0  0  0  0  0  0  0
    4.0261   -5.6990   -2.3391 C   0  0  0  0  0  0  0  0  0  0  0  0
    3.9288   -7.0811   -2.1865 C   0  0  0  0  0  0  0  0  0  0  0  0
    5.0453   -7.8861   -2.4024 C   0  0  0  0  0  0  0  0  0  0  0  0
    6.2580   -7.3105   -2.7808 C   0  0  0  0  0  0  0  0  0  0  0  0
    6.3642   -5.9243   -2.9025 C   0  0  0  0  0  0  0  0  0  0  0  0
    4.2865   -1.7217   -2.7273 C   0  0  0  0  0  0  0  0  0  0  0  0
    3.4993   -0.7731   -2.0761 C   0  0  0  0  0  0  0  0  0  0  0  0
    0.7041    0.9933    0.4744 H   0  0  0  0  0  0  0  0  0  0  0  0
    0.7252   -0.7770    0.3733 H   0  0  0  0  0  0  0  0  0  0  0  0
    0.7811    0.2069   -1.1181 H   0  0  0  0  0  0  0  0  0  0  0  0
    5.3295    0.3356   -0.9528 H   0  0  0  0  0  0  0  0  0  0  0  0
    7.5995   -0.3161   -0.4157 H   0  0  0  0  0  0  0  0  0  0  0  0
   10.1928    0.1049    3.5229 H   0  0  0  0  0  0  0  0  0  0  0  0
    6.6426    1.8212    4.6050 H   0  0  0  0  0  0  0  0  0  0  0  0
    4.6398    1.5639    3.1138 H   0  0  0  0  0  0  0  0  0  0  0  0
    3.2432   -2.2883    0.9764 H   0  0  0  0  0  0  0  0  0  0  0  0
    4.6093   -3.9776   -0.1881 H   0  0  0  0  0  0  0  0  0  0  0  0
    3.1361   -5.0927   -2.1975 H   0  0  0  0  0  0  0  0  0  0  0  0
    2.9804   -7.5264   -1.8983 H   0  0  0  0  0  0  0  0  0  0  0  0
    4.9673   -8.9636   -2.2847 H   0  0  0  0  0  0  0  0  0  0  0  0
    7.1213   -7.9410   -2.9763 H   0  0  0  0  0  0  0  0  0  0  0  0
    7.3128   -5.4780   -3.1914 H   0  0  0  0  0  0  0  0  0  0  0  0
    4.6390   -1.5347   -3.7383 H   0  0  0  0  0  0  0  0  0  0  0  0
    3.2549    0.1600   -2.5783 H   0  0  0  0  0  0  0  0  0  0  0  0
  1  2  1  0  0  0  0
  1 29  1  0  0  0  0
  1 30  1  0  0  0  0
  1 31  1  0  0  0  0
  2  3  1  0  0  0  0
  2 16  1  0  0  0  0
  3  4  2  0  0  0  0
  3  5  1  0  0  0  0
  5  6  2  0  0  0  0
  5 15  1  0  0  0  0
  6  7  1  0  0  0  0
  6 32  1  0  0  0  0
  7  8  2  0  0  0  0
  7 33  1  0  0  0  0
  8  9  1  0  0  0  0
  8 14  1  0  0  0  0
  9 10  2  0  0  0  0
  9 11  1  0  0  0  0
 11 12  1  0  0  0  0
 11 34  1  0  0  0  0
 12 13  2  0  0  0  0
 13 14  1  0  0  0  0
 13 35  1  0  0  0  0
 14 15  2  0  0  0  0
 15 36  1  0  0  0  0
 16 17  2  0  0  0  0
 16 28  1  0  0  0  0
 17 18  1  0  0  0  0
 17 37  1  0  0  0  0
 18 19  2  0  0  0  0
 18 38  1  0  0  0  0
 19 20  1  0  0  0  0
 19 27  1  0  0  0  0
 20 21  1  0  0  0  0
 21 22  2  0  0  0  0
 21 26  1  0  0  0  0
 22 23  1  0  0  0  0
 22 39  1  0  0  0  0
 23 24  2  0  0  0  0
 23 40  1  0  0  0  0
 24 25  1  0  0  0  0
 24 41  1  0  0  0  0
 25 26  2  0  0  0  0
 25 42  1  0  0  0  0
 26 43  1  0  0  0  0
 27 28  2  0  0  0  0
 27 44  1  0  0  0  0
 28 45  1  0  0  0  0
M  END
$$$$
