
 OpenBabel01122422483D

 44 47  0  0  0  0  0  0  0  0999 V2000
    0.9564    0.2283   -0.0226 O   0  0  0  0  0  0  0  0  0  0  0  0
    2.1829    0.1848   -0.0222 C   0  0  0  0  0  0  0  0  0  0  0  0
    2.9123   -0.2851    1.0477 N   0  0  0  0  0  0  0  0  0  0  0  0
    2.2887   -0.7679    2.2537 C   0  0  0  0  0  0  0  0  0  0  0  0
    2.6697    0.0407    3.4693 C   0  0  0  0  0  0  0  0  0  0  0  0
    2.5181    1.4339    3.4827 C   0  0  0  0  0  0  0  0  0  0  0  0
    2.7747    2.1617    4.6429 C   0  0  0  0  0  0  0  0  0  0  0  0
    3.1506    1.5013    5.8137 C   0  0  0  0  0  0  0  0  0  0  0  0
    3.2781    0.1054    5.8437 C   0  0  0  0  0  0  0  0  0  0  0  0
    3.5364   -0.5825    7.1074 C   0  0  0  0  0  0  0  0  0  0  0  0
    3.5931   -0.1761    8.4282 C   0  0  0  0  0  0  0  0  0  0  0  0
    3.7778   -1.3413    9.2099 C   0  0  0  0  0  0  0  0  0  0  0  0
    3.8473   -2.3869    8.3219 C   0  0  0  0  0  0  0  0  0  0  0  0
    3.7086   -1.9389    7.0478 O   0  0  0  0  0  0  0  0  0  0  0  0
    3.0629   -0.6084    4.6531 C   0  0  0  0  0  0  0  0  0  0  0  0
    3.0093    0.6436   -1.1509 C   0  0  0  0  0  0  0  0  0  0  0  0
    4.3613    0.6145   -1.1164 N   0  0  0  0  0  0  0  0  0  0  0  0
    4.7576    1.1701   -2.2962 N   0  0  0  0  0  0  0  0  0  0  0  0
    6.1399    1.3630   -2.5875 C   0  0  0  0  0  0  0  0  0  0  0  0
    7.1135    0.8995   -1.6845 C   0  0  0  0  0  0  0  0  0  0  0  0
    8.4709    1.0902   -1.9541 C   0  0  0  0  0  0  0  0  0  0  0  0
    8.8558    1.7447   -3.1177 C   0  0  0  0  0  0  0  0  0  0  0  0
   10.1564    1.9318   -3.3747 F   0  0  0  0  0  0  0  0  0  0  0  0
    7.9078    2.2122   -4.0205 C   0  0  0  0  0  0  0  0  0  0  0  0
    6.5482    2.0226   -3.7608 C   0  0  0  0  0  0  0  0  0  0  0  0
    3.6862    1.4970   -3.0950 C   0  0  0  0  0  0  0  0  0  0  0  0
    2.5661    1.1683   -2.3833 C   0  0  0  0  0  0  0  0  0  0  0  0
    1.3120    1.3446   -2.8229 O   0  0  0  0  0  0  0  0  0  0  0  0
    3.9220   -0.2837    0.9523 H   0  0  0  0  0  0  0  0  0  0  0  0
    2.6019   -1.8109    2.3689 H   0  0  0  0  0  0  0  0  0  0  0  0
    1.1965   -0.7610    2.1619 H   0  0  0  0  0  0  0  0  0  0  0  0
    2.1728    1.9566    2.5927 H   0  0  0  0  0  0  0  0  0  0  0  0
    2.6485    3.2414    4.6462 H   0  0  0  0  0  0  0  0  0  0  0  0
    3.3139    2.0928    6.7108 H   0  0  0  0  0  0  0  0  0  0  0  0
    3.4749    0.8356    8.7888 H   0  0  0  0  0  0  0  0  0  0  0  0
    3.8384   -1.4100   10.2867 H   0  0  0  0  0  0  0  0  0  0  0  0
    3.9730   -3.4550    8.4309 H   0  0  0  0  0  0  0  0  0  0  0  0
    3.1569   -1.6934    4.6572 H   0  0  0  0  0  0  0  0  0  0  0  0
    6.8307    0.3871   -0.7686 H   0  0  0  0  0  0  0  0  0  0  0  0
    9.2293    0.7321   -1.2660 H   0  0  0  0  0  0  0  0  0  0  0  0
    8.2351    2.7261   -4.9196 H   0  0  0  0  0  0  0  0  0  0  0  0
    5.8407    2.4071   -4.4885 H   0  0  0  0  0  0  0  0  0  0  0  0
    3.8008    1.9309   -4.0740 H   0  0  0  0  0  0  0  0  0  0  0  0
    1.3009    1.7157   -3.7203 H   0  0  0  0  0  0  0  0  0  0  0  0
  1  2  2  0  0  0  0
  2  3  1  0  0  0  0
  2 16  1  0  0  0  0
  3  4  1  0  0  0  0
  3 29  1  0  0  0  0
  4  5  1  0  0  0  0
  4 30  1  0  0  0  0
  4 31  1  0  0  0  0
  5  6  2  0  0  0  0
  5 15  1  0  0  0  0
  6  7  1  0  0  0  0
  6 32  1  0  0  0  0
  7  8  2  0  0  0  0
  7 33  1  0  0  0  0
  8  9  1  0  0  0  0
  8 34  1  0  0  0  0
  9 10  1  0  0  0  0
  9 15  2  0  0  0  0
 10 11  2  0  0  0  0
 10 14  1  0  0  0  0
 11 12  1  0  0  0  0
 11 35  1  0  0  0  0
 12 13  2  0  0  0  0
 12 36  1  0  0  0  0
 13 14  1  0  0  0  0
 13 37  1  0  0  0  0
 15 38  1  0  0  0  0
 16 17  2  0  0  0  0
 16 27  1  0  0  0  0
 17 18  1  0  0  0  0
 18 19  1  0  0  0  0
 18 26  1  0  0  0  0
 19 20  2  0  0  0  0
 19 25  1  0  0  0  0
 20 21  1  0  0  0  0
 20 39  1  0  0  0  0
 21 22  2  0  0  0  0
 21 40  1  0  0  0  0
 22 23  1  0  0  0  0
 22 24  1  0  0  0  0
 24 25  2  0  0  0  0
 24 41  1  0  0  0  0
 25 42  1  0  0  0  0
 26 27  2  0  0  0  0
 26 43  1  0  0  0  0
 27 28  1  0  0  0  0
 28 44  1  0  0  0  0
M  END
$$$$
