
 OpenBabel01122422483D

 41 44  0  0  0  0  0  0  0  0999 V2000
    1.0602   -0.3431   -0.0812 O   0  0  0  0  0  0  0  0  0  0  0  0
    2.2496   -0.0687   -0.0325 C   0  0  0  0  0  0  0  0  0  0  0  0
    2.8921    0.4608    1.0716 N   0  0  0  0  0  0  0  0  0  0  0  0
    2.2231    0.7912    2.2651 C   0  0  0  0  0  0  0  0  0  0  0  0
    0.9380    0.3907    2.5743 C   0  0  0  0  0  0  0  0  0  0  0  0
    0.2667    0.7785    3.6705 N   0  0  0  0  0  0  0  0  0  0  0  0
    0.9097    1.6016    4.5084 C   0  0  0  0  0  0  0  0  0  0  0  0
    0.1447    2.0940    5.6617 C   0  0  0  0  0  0  0  0  0  0  0  0
   -1.1902    1.6907    5.8791 C   0  0  0  0  0  0  0  0  0  0  0  0
   -1.9079    2.1619    6.9712 C   0  0  0  0  0  0  0  0  0  0  0  0
   -3.1940    1.7719    7.2013 O   0  0  0  0  0  0  0  0  0  0  0  0
   -1.3286    3.0469    7.8703 C   0  0  0  0  0  0  0  0  0  0  0  0
   -0.0132    3.4620    7.6746 C   0  0  0  0  0  0  0  0  0  0  0  0
    0.7149    2.9878    6.5803 C   0  0  0  0  0  0  0  0  0  0  0  0
    2.1857    2.0123    4.3418 N   0  0  0  0  0  0  0  0  0  0  0  0
    2.8168    1.5885    3.2235 C   0  0  0  0  0  0  0  0  0  0  0  0
    3.0602   -0.2796   -1.2033 C   0  0  0  0  0  0  0  0  0  0  0  0
    4.3378   -0.7951   -1.2789 C   0  0  0  0  0  0  0  0  0  0  0  0
    5.3095   -1.2599   -0.3401 C   0  0  0  0  0  0  0  0  0  0  0  0
    6.4785   -1.7572   -0.7833 C   0  0  0  0  0  0  0  0  0  0  0  0
    6.7793   -1.8531   -2.1973 C   0  0  0  0  0  0  0  0  0  0  0  0
    5.8534   -1.4415   -3.0820 C   0  0  0  0  0  0  0  0  0  0  0  0
    4.6395   -0.9163   -2.6353 N   0  0  0  0  0  0  0  0  0  0  0  0
    3.6207   -0.4714   -3.4084 N   0  0  0  0  0  0  0  0  0  0  0  0
    2.6426   -0.1060   -2.5579 C   0  0  0  0  0  0  0  0  0  0  0  0
    1.3152    0.4337   -3.0625 C   0  0  0  0  0  0  0  0  0  0  0  0
    0.4875    0.8967   -2.0995 F   0  0  0  0  0  0  0  0  0  0  0  0
    1.5037    1.4899   -3.9078 F   0  0  0  0  0  0  0  0  0  0  0  0
    0.6180   -0.5026   -3.7649 F   0  0  0  0  0  0  0  0  0  0  0  0
    3.8550    0.7636    0.9580 H   0  0  0  0  0  0  0  0  0  0  0  0
    0.3588   -0.2832    1.9547 H   0  0  0  0  0  0  0  0  0  0  0  0
   -1.6634    1.0032    5.1767 H   0  0  0  0  0  0  0  0  0  0  0  0
   -3.4495    1.1283    6.5192 H   0  0  0  0  0  0  0  0  0  0  0  0
   -1.8973    3.4102    8.7176 H   0  0  0  0  0  0  0  0  0  0  0  0
    0.4496    4.1543    8.3728 H   0  0  0  0  0  0  0  0  0  0  0  0
    1.7403    3.3272    6.4472 H   0  0  0  0  0  0  0  0  0  0  0  0
    3.8320    1.9563    3.1203 H   0  0  0  0  0  0  0  0  0  0  0  0
    5.1030   -1.2392    0.7268 H   0  0  0  0  0  0  0  0  0  0  0  0
    7.2276   -2.1282   -0.0836 H   0  0  0  0  0  0  0  0  0  0  0  0
    7.7287   -2.2700   -2.5146 H   0  0  0  0  0  0  0  0  0  0  0  0
    5.9840   -1.4954   -4.1533 H   0  0  0  0  0  0  0  0  0  0  0  0
  1  2  2  0  0  0  0
  2  3  1  0  0  0  0
  2 17  1  0  0  0  0
  3  4  1  0  0  0  0
  3 30  1  0  0  0  0
  4  5  2  0  0  0  0
  4 16  1  0  0  0  0
  5  6  1  0  0  0  0
  5 31  1  0  0  0  0
  6  7  2  0  0  0  0
  7  8  1  0  0  0  0
  7 15  1  0  0  0  0
  8  9  2  0  0  0  0
  8 14  1  0  0  0  0
  9 10  1  0  0  0  0
  9 32  1  0  0  0  0
 10 11  1  0  0  0  0
 10 12  2  0  0  0  0
 11 33  1  0  0  0  0
 12 13  1  0  0  0  0
 12 34  1  0  0  0  0
 13 14  2  0  0  0  0
 13 35  1  0  0  0  0
 14 36  1  0  0  0  0
 15 16  2  0  0  0  0
 16 37  1  0  0  0  0
 17 18  2  0  0  0  0
 17 25  1  0  0  0  0
 18 19  1  0  0  0  0
 18 23  1  0  0  0  0
 19 20  2  0  0  0  0
 19 38  1  0  0  0  0
 20 21  1  0  0  0  0
 20 39  1  0  0  0  0
 21 22  2  0  0  0  0
 21 40  1  0  0  0  0
 22 23  1  0  0  0  0
 22 41  1  0  0  0  0
 23 24  1  0  0  0  0
 24 25  2  0  0  0  0
 25 26  1  0  0  0  0
 26 27  1  0  0  0  0
 26 28  1  0  0  0  0
 26 29  1  0  0  0  0
M  END
$$$$
