
 OpenBabel01122422483D

 42 45  0  0  0  0  0  0  0  0999 V2000
    1.0967    0.1285    0.2940 O   0  0  0  0  0  0  0  0  0  0  0  0
    2.3037    0.0936    0.0625 C   0  0  0  0  0  0  0  0  0  0  0  0
    2.9665    0.7892   -0.9281 N   0  0  0  0  0  0  0  0  0  0  0  0
    2.3375    1.6276   -1.8318 C   0  0  0  0  0  0  0  0  0  0  0  0
    1.0556    2.1153   -1.7775 C   0  0  0  0  0  0  0  0  0  0  0  0
    0.8405    2.8507   -2.9202 N   0  0  0  0  0  0  0  0  0  0  0  0
   -0.3790    3.4992   -3.2804 C   0  0  0  0  0  0  0  0  0  0  0  0
   -0.4811    4.1056   -4.5298 C   0  0  0  0  0  0  0  0  0  0  0  0
   -1.6745    4.7398   -4.8699 C   0  0  0  0  0  0  0  0  0  0  0  0
   -2.7234    4.7589   -3.9580 C   0  0  0  0  0  0  0  0  0  0  0  0
   -2.5437    4.1287   -2.7385 C   0  0  0  0  0  0  0  0  0  0  0  0
   -1.4054    3.4958   -2.3808 N   0  0  0  0  0  0  0  0  0  0  0  0
    1.9604    2.8949   -3.7013 N   0  0  0  0  0  0  0  0  0  0  0  0
    2.8581    2.1750   -3.0207 C   0  0  0  0  0  0  0  0  0  0  0  0
    3.1625   -0.8137    0.8808 C   0  0  0  0  0  0  0  0  0  0  0  0
    2.5410   -1.7337    1.7185 C   0  0  0  0  0  0  0  0  0  0  0  0
    3.3344   -2.5539    2.5098 C   0  0  0  0  0  0  0  0  0  0  0  0
    4.7176   -2.3840    2.4950 C   0  0  0  0  0  0  0  0  0  0  0  0
    5.5838   -3.0836    3.3014 O   0  0  0  0  0  0  0  0  0  0  0  0
    5.2035   -3.3580    4.6005 C   0  0  0  0  0  0  0  0  0  0  0  0
    5.6986   -4.5401    5.1614 C   0  0  0  0  0  0  0  0  0  0  0  0
    5.3312   -4.9036    6.4599 C   0  0  0  0  0  0  0  0  0  0  0  0
    4.4729   -4.0845    7.1862 C   0  0  0  0  0  0  0  0  0  0  0  0
    4.0948   -4.4486    8.4178 F   0  0  0  0  0  0  0  0  0  0  0  0
    4.0066   -2.8892    6.6552 C   0  0  0  0  0  0  0  0  0  0  0  0
    4.3979   -2.5093    5.3712 C   0  0  0  0  0  0  0  0  0  0  0  0
    5.2534   -1.4713    1.5894 C   0  0  0  0  0  0  0  0  0  0  0  0
    4.5137   -0.6817    0.7653 N   0  0  0  0  0  0  0  0  0  0  0  0
    3.9561    0.5878   -1.0482 H   0  0  0  0  0  0  0  0  0  0  0  0
    0.2642    1.9998   -1.0493 H   0  0  0  0  0  0  0  0  0  0  0  0
    0.3418    4.0820   -5.2384 H   0  0  0  0  0  0  0  0  0  0  0  0
   -1.7812    5.2166   -5.8402 H   0  0  0  0  0  0  0  0  0  0  0  0
   -3.6596    5.2536   -4.1921 H   0  0  0  0  0  0  0  0  0  0  0  0
   -3.3337    4.1173   -1.9927 H   0  0  0  0  0  0  0  0  0  0  0  0
    3.8480    2.0552   -3.4397 H   0  0  0  0  0  0  0  0  0  0  0  0
    1.4581   -1.8055    1.7604 H   0  0  0  0  0  0  0  0  0  0  0  0
    2.8589   -3.2855    3.1568 H   0  0  0  0  0  0  0  0  0  0  0  0
    6.3616   -5.1839    4.5888 H   0  0  0  0  0  0  0  0  0  0  0  0
    5.7007   -5.8209    6.9076 H   0  0  0  0  0  0  0  0  0  0  0  0
    3.3416   -2.2606    7.2387 H   0  0  0  0  0  0  0  0  0  0  0  0
    4.0467   -1.5586    4.9802 H   0  0  0  0  0  0  0  0  0  0  0  0
    6.3298   -1.3356    1.5164 H   0  0  0  0  0  0  0  0  0  0  0  0
  1  2  2  0  0  0  0
  2  3  1  0  0  0  0
  2 15  1  0  0  0  0
  3  4  1  0  0  0  0
  3 29  1  0  0  0  0
  4  5  2  0  0  0  0
  4 14  1  0  0  0  0
  5  6  1  0  0  0  0
  5 30  1  0  0  0  0
  6  7  1  0  0  0  0
  6 13  1  0  0  0  0
  7  8  2  0  0  0  0
  7 12  1  0  0  0  0
  8  9  1  0  0  0  0
  8 31  1  0  0  0  0
  9 10  2  0  0  0  0
  9 32  1  0  0  0  0
 10 11  1  0  0  0  0
 10 33  1  0  0  0  0
 11 12  2  0  0  0  0
 11 34  1  0  0  0  0
 13 14  2  0  0  0  0
 14 35  1  0  0  0  0
 15 16  2  0  0  0  0
 15 28  1  0  0  0  0
 16 17  1  0  0  0  0
 16 36  1  0  0  0  0
 17 18  2  0  0  0  0
 17 37  1  0  0  0  0
 18 19  1  0  0  0  0
 18 27  1  0  0  0  0
 19 20  1  0  0  0  0
 20 21  2  0  0  0  0
 20 26  1  0  0  0  0
 21 22  1  0  0  0  0
 21 38  1  0  0  0  0
 22 23  2  0  0  0  0
 22 39  1  0  0  0  0
 23 24  1  0  0  0  0
 23 25  1  0  0  0  0
 25 26  2  0  0  0  0
 25 40  1  0  0  0  0
 26 41  1  0  0  0  0
 27 28  2  0  0  0  0
 27 42  1  0  0  0  0
M  END
$$$$
