
 OpenBabel01122422453D

 42 45  0  0  0  0  0  0  0  0999 V2000
    2.0748   -0.9675    1.6701 O   0  0  0  0  0  0  0  0  0  0  0  0
    2.8168   -0.4349    0.8501 C   0  0  0  0  0  0  0  0  0  0  0  0
    3.0239    0.9215    0.7831 N   0  0  0  0  0  0  0  0  0  0  0  0
    2.3625    1.8407    1.6901 C   0  0  0  0  0  0  0  0  0  0  0  0
    3.3587    2.6674    2.4511 C   0  0  0  0  0  0  0  0  0  0  0  0
    4.2560    2.0766    3.3366 C   0  0  0  0  0  0  0  0  0  0  0  0
    5.1537    2.8707    4.0521 C   0  0  0  0  0  0  0  0  0  0  0  0
    5.1426    4.2549    3.8699 C   0  0  0  0  0  0  0  0  0  0  0  0
    6.0604    5.1485    4.6024 C   0  0  0  0  0  0  0  0  0  0  0  0
    7.3510    4.7401    4.9754 C   0  0  0  0  0  0  0  0  0  0  0  0
    8.1579    5.6010    5.7043 C   0  0  0  0  0  0  0  0  0  0  0  0
    7.7834    6.8370    6.0837 N   0  0  0  0  0  0  0  0  0  0  0  0
    6.5512    7.2338    5.7036 C   0  0  0  0  0  0  0  0  0  0  0  0
    5.6747    6.4439    4.9734 C   0  0  0  0  0  0  0  0  0  0  0  0
    4.2647    4.8464    3.0201 N   0  0  0  0  0  0  0  0  0  0  0  0
    3.4024    4.0504    2.3381 C   0  0  0  0  0  0  0  0  0  0  0  0
    3.5421   -1.2811   -0.1283 C   0  0  0  0  0  0  0  0  0  0  0  0
    3.0381   -2.5391   -0.4117 C   0  0  0  0  0  0  0  0  0  0  0  0
    3.6639   -3.4444   -1.2022 N   0  0  0  0  0  0  0  0  0  0  0  0
    4.8574   -3.1183   -1.7419 C   0  0  0  0  0  0  0  0  0  0  0  0
    5.5998   -4.0543   -2.4660 C   0  0  0  0  0  0  0  0  0  0  0  0
    5.1270   -5.3021   -2.6230 F   0  0  0  0  0  0  0  0  0  0  0  0
    6.8461   -3.7612   -3.0213 C   0  0  0  0  0  0  0  0  0  0  0  0
    7.3570   -2.4759   -2.9080 C   0  0  0  0  0  0  0  0  0  0  0  0
    6.6404   -1.5266   -2.1870 C   0  0  0  0  0  0  0  0  0  0  0  0
    7.1467   -0.2880   -2.0844 F   0  0  0  0  0  0  0  0  0  0  0  0
    5.4183   -1.8360   -1.5640 C   0  0  0  0  0  0  0  0  0  0  0  0
    4.7463   -0.9186   -0.7313 C   0  0  0  0  0  0  0  0  0  0  0  0
    3.5598    1.3247    0.0291 H   0  0  0  0  0  0  0  0  0  0  0  0
    1.7168    1.3084    2.3974 H   0  0  0  0  0  0  0  0  0  0  0  0
    1.7171    2.4749    1.0724 H   0  0  0  0  0  0  0  0  0  0  0  0
    4.2526    0.9988    3.4890 H   0  0  0  0  0  0  0  0  0  0  0  0
    5.8279    2.4008    4.7562 H   0  0  0  0  0  0  0  0  0  0  0  0
    7.7407    3.7668    4.6989 H   0  0  0  0  0  0  0  0  0  0  0  0
    9.1569    5.3029    6.0107 H   0  0  0  0  0  0  0  0  0  0  0  0
    6.2727    8.2360    6.0163 H   0  0  0  0  0  0  0  0  0  0  0  0
    4.6954    6.8317    4.7089 H   0  0  0  0  0  0  0  0  0  0  0  0
    2.7250    4.5885    1.6797 H   0  0  0  0  0  0  0  0  0  0  0  0
    2.0936   -2.8790    0.0084 H   0  0  0  0  0  0  0  0  0  0  0  0
    7.3987   -4.5425   -3.5343 H   0  0  0  0  0  0  0  0  0  0  0  0
    8.3084   -2.2124   -3.3602 H   0  0  0  0  0  0  0  0  0  0  0  0
    5.2127    0.0393   -0.5172 H   0  0  0  0  0  0  0  0  0  0  0  0
  1  2  2  0  0  0  0
  2  3  1  0  0  0  0
  2 17  1  0  0  0  0
  3  4  1  0  0  0  0
  3 29  1  0  0  0  0
  4  5  1  0  0  0  0
  4 30  1  0  0  0  0
  4 31  1  0  0  0  0
  5  6  2  0  0  0  0
  5 16  1  0  0  0  0
  6  7  1  0  0  0  0
  6 32  1  0  0  0  0
  7  8  2  0  0  0  0
  7 33  1  0  0  0  0
  8  9  1  0  0  0  0
  8 15  1  0  0  0  0
  9 10  2  0  0  0  0
  9 14  1  0  0  0  0
 10 11  1  0  0  0  0
 10 34  1  0  0  0  0
 11 12  2  0  0  0  0
 11 35  1  0  0  0  0
 12 13  1  0  0  0  0
 13 14  2  0  0  0  0
 13 36  1  0  0  0  0
 14 37  1  0  0  0  0
 15 16  2  0  0  0  0
 16 38  1  0  0  0  0
 17 18  2  0  0  0  0
 17 28  1  0  0  0  0
 18 19  1  0  0  0  0
 18 39  1  0  0  0  0
 19 20  2  0  0  0  0
 20 21  1  0  0  0  0
 20 27  1  0  0  0  0
 21 22  1  0  0  0  0
 21 23  2  0  0  0  0
 23 24  1  0  0  0  0
 23 40  1  0  0  0  0
 24 25  2  0  0  0  0
 24 41  1  0  0  0  0
 25 26  1  0  0  0  0
 25 27  1  0  0  0  0
 27 28  2  0  0  0  0
 28 42  1  0  0  0  0
M  END
$$$$
