
 OpenBabel01122422483D

 45 48  0  0  0  0  0  0  0  0999 V2000
    1.1337    0.0693    1.0006 C   0  0  0  0  0  0  0  0  0  0  0  0
    2.5640   -0.0486    0.6075 C   0  0  0  0  0  0  0  0  0  0  0  0
    3.3113   -1.1266    0.1296 C   0  0  0  0  0  0  0  0  0  0  0  0
    2.7391   -2.4430   -0.1525 C   0  0  0  0  0  0  0  0  0  0  0  0
    1.6208   -2.5380   -0.6445 O   0  0  0  0  0  0  0  0  0  0  0  0
    3.5095   -3.5259    0.2569 N   0  0  0  0  0  0  0  0  0  0  0  0
    3.1370   -4.8519    0.1351 C   0  0  0  0  0  0  0  0  0  0  0  0
    2.2403   -5.3078   -0.7586 C   0  0  0  0  0  0  0  0  0  0  0  0
    1.8424   -6.6366   -0.8046 N   0  0  0  0  0  0  0  0  0  0  0  0
    0.9218   -7.0640   -1.8624 C   0  0  0  0  0  0  0  0  0  0  0  0
   -0.5277   -6.7860   -1.5512 C   0  0  0  0  0  0  0  0  0  0  0  0
   -1.1899   -7.4697   -0.5196 C   0  0  0  0  0  0  0  0  0  0  0  0
   -2.5266   -7.1872   -0.2312 C   0  0  0  0  0  0  0  0  0  0  0  0
   -3.2051   -6.2304   -0.9783 C   0  0  0  0  0  0  0  0  0  0  0  0
   -4.4833   -5.9541   -0.6886 F   0  0  0  0  0  0  0  0  0  0  0  0
   -2.5800   -5.5612   -2.0201 C   0  0  0  0  0  0  0  0  0  0  0  0
   -1.2478   -5.8462   -2.2986 C   0  0  0  0  0  0  0  0  0  0  0  0
   -0.6545   -5.2057   -3.3164 F   0  0  0  0  0  0  0  0  0  0  0  0
    2.2922   -7.5664    0.1241 C   0  0  0  0  0  0  0  0  0  0  0  0
    1.9150   -8.7339    0.1938 O   0  0  0  0  0  0  0  0  0  0  0  0
    3.3232   -7.0795    1.0805 C   0  0  0  0  0  0  0  0  0  0  0  0
    3.7401   -5.8058    1.0466 C   0  0  0  0  0  0  0  0  0  0  0  0
    4.6463   -0.6430   -0.0847 C   0  0  0  0  0  0  0  0  0  0  0  0
    5.8582   -1.1646   -0.5779 C   0  0  0  0  0  0  0  0  0  0  0  0
    6.9497   -0.2974   -0.6811 C   0  0  0  0  0  0  0  0  0  0  0  0
    6.7973    1.0310   -0.3069 C   0  0  0  0  0  0  0  0  0  0  0  0
    5.6635    1.5820    0.1744 N   0  0  0  0  0  0  0  0  0  0  0  0
    4.6447    0.7074    0.2507 C   0  0  0  0  0  0  0  0  0  0  0  0
    3.3904    1.0452    0.6609 N   0  0  0  0  0  0  0  0  0  0  0  0
    0.6182   -0.8954    0.9843 H   0  0  0  0  0  0  0  0  0  0  0  0
    0.6062    0.7469    0.3218 H   0  0  0  0  0  0  0  0  0  0  0  0
    1.0521    0.4651    2.0177 H   0  0  0  0  0  0  0  0  0  0  0  0
    4.2966   -3.3072    0.8540 H   0  0  0  0  0  0  0  0  0  0  0  0
    1.7793   -4.6614   -1.5000 H   0  0  0  0  0  0  0  0  0  0  0  0
    1.0433   -8.1390   -2.0451 H   0  0  0  0  0  0  0  0  0  0  0  0
    1.2254   -6.5704   -2.7946 H   0  0  0  0  0  0  0  0  0  0  0  0
   -0.6665   -8.2251    0.0640 H   0  0  0  0  0  0  0  0  0  0  0  0
   -3.0394   -7.7060    0.5729 H   0  0  0  0  0  0  0  0  0  0  0  0
   -3.1203   -4.8265   -2.6048 H   0  0  0  0  0  0  0  0  0  0  0  0
    3.7197   -7.8105    1.7722 H   0  0  0  0  0  0  0  0  0  0  0  0
    4.5064   -5.4740    1.7375 H   0  0  0  0  0  0  0  0  0  0  0  0
    5.9472   -2.1974   -0.8982 H   0  0  0  0  0  0  0  0  0  0  0  0
    7.9005   -0.6450   -1.0701 H   0  0  0  0  0  0  0  0  0  0  0  0
    7.6314    1.7248   -0.3918 H   0  0  0  0  0  0  0  0  0  0  0  0
    3.1274    1.9814    0.9311 H   0  0  0  0  0  0  0  0  0  0  0  0
  1  2  1  0  0  0  0
  1 30  1  0  0  0  0
  1 31  1  0  0  0  0
  1 32  1  0  0  0  0
  2  3  2  0  0  0  0
  2 29  1  0  0  0  0
  3  4  1  0  0  0  0
  3 23  1  0  0  0  0
  4  5  2  0  0  0  0
  4  6  1  0  0  0  0
  6  7  1  0  0  0  0
  6 33  1  0  0  0  0
  7  8  2  0  0  0  0
  7 22  1  0  0  0  0
  8  9  1  0  0  0  0
  8 34  1  0  0  0  0
  9 10  1  0  0  0  0
  9 19  1  0  0  0  0
 10 11  1  0  0  0  0
 10 35  1  0  0  0  0
 10 36  1  0  0  0  0
 11 12  2  0  0  0  0
 11 17  1  0  0  0  0
 12 13  1  0  0  0  0
 12 37  1  0  0  0  0
 13 14  2  0  0  0  0
 13 38  1  0  0  0  0
 14 15  1  0  0  0  0
 14 16  1  0  0  0  0
 16 17  2  0  0  0  0
 16 39  1  0  0  0  0
 17 18  1  0  0  0  0
 19 20  2  0  0  0  0
 19 21  1  0  0  0  0
 21 22  2  0  0  0  0
 21 40  1  0  0  0  0
 22 41  1  0  0  0  0
 23 24  2  0  0  0  0
 23 28  1  0  0  0  0
 24 25  1  0  0  0  0
 24 42  1  0  0  0  0
 25 26  2  0  0  0  0
 25 43  1  0  0  0  0
 26 27  1  0  0  0  0
 26 44  1  0  0  0  0
 27 28  2  0  0  0  0
 28 29  1  0  0  0  0
 29 45  1  0  0  0  0
M  END
$$$$
