
 OpenBabel01122422483D

 52 55  0  0  0  0  0  0  0  0999 V2000
    3.3249    1.4969    2.8274 C   0  0  0  0  0  0  0  0  0  0  0  0
    2.6309    0.3107    2.2224 C   0  0  0  0  0  0  0  0  0  0  0  0
    1.4211    0.4302    1.7697 N   0  0  0  0  0  0  0  0  0  0  0  0
    0.7844   -0.7174    1.2718 C   0  0  0  0  0  0  0  0  0  0  0  0
   -0.5323   -0.5723    0.8206 C   0  0  0  0  0  0  0  0  0  0  0  0
   -1.2567   -1.6711    0.3625 C   0  0  0  0  0  0  0  0  0  0  0  0
   -0.6586   -2.9258    0.3354 C   0  0  0  0  0  0  0  0  0  0  0  0
    0.6631   -3.0827    0.7627 C   0  0  0  0  0  0  0  0  0  0  0  0
    1.3951   -1.9862    1.2460 C   0  0  0  0  0  0  0  0  0  0  0  0
    2.7311   -2.1078    1.7277 N   0  0  0  0  0  0  0  0  0  0  0  0
    3.4305   -3.3859    1.7193 C   0  0  0  0  0  0  0  0  0  0  0  0
    4.1024   -3.6785    0.3683 C   0  0  0  0  0  0  0  0  0  0  0  0
    4.7459   -4.9852    0.3085 N   0  0  0  0  0  0  0  0  0  0  0  0
    4.0477   -6.1506    0.5360 C   0  0  0  0  0  0  0  0  0  0  0  0
    2.8581   -6.1871    0.8175 O   0  0  0  0  0  0  0  0  0  0  0  0
    4.8305   -7.4102    0.4573 C   0  0  0  0  0  0  0  0  0  0  0  0
    6.1498   -7.3809    0.9509 C   0  0  0  0  0  0  0  0  0  0  0  0
    6.8930   -8.5513    1.0254 C   0  0  0  0  0  0  0  0  0  0  0  0
    8.1414   -8.5009    1.5075 F   0  0  0  0  0  0  0  0  0  0  0  0
    6.3416   -9.7594    0.6293 C   0  0  0  0  0  0  0  0  0  0  0  0
    7.0553  -10.8884    0.7263 F   0  0  0  0  0  0  0  0  0  0  0  0
    5.0409   -9.8089    0.1413 C   0  0  0  0  0  0  0  0  0  0  0  0
    4.2703   -8.6334    0.0367 C   0  0  0  0  0  0  0  0  0  0  0  0
    2.8821   -8.8292   -0.4635 C   0  0  0  0  0  0  0  0  0  0  0  0
    2.2892   -9.8438   -0.0949 O   0  0  0  0  0  0  0  0  0  0  0  0
    2.2115   -7.9302   -1.4395 C   0  0  0  0  0  0  0  0  0  0  0  0
    0.8087   -7.9223   -1.4685 C   0  0  0  0  0  0  0  0  0  0  0  0
    0.1242   -7.1042   -2.3683 C   0  0  0  0  0  0  0  0  0  0  0  0
    0.8374   -6.2921   -3.2472 C   0  0  0  0  0  0  0  0  0  0  0  0
    2.2326   -6.3056   -3.2345 C   0  0  0  0  0  0  0  0  0  0  0  0
    2.9226   -7.1330   -2.3429 C   0  0  0  0  0  0  0  0  0  0  0  0
    3.4112   -0.9924    2.1990 C   0  0  0  0  0  0  0  0  0  0  0  0
    4.5738   -0.9891    2.5866 O   0  0  0  0  0  0  0  0  0  0  0  0
    2.6936    2.3867    2.7542 H   0  0  0  0  0  0  0  0  0  0  0  0
    4.2657    1.6847    2.3039 H   0  0  0  0  0  0  0  0  0  0  0  0
    3.5287    1.2954    3.8830 H   0  0  0  0  0  0  0  0  0  0  0  0
   -0.9982    0.4097    0.8460 H   0  0  0  0  0  0  0  0  0  0  0  0
   -2.2864   -1.5471    0.0377 H   0  0  0  0  0  0  0  0  0  0  0  0
   -1.2204   -3.7909   -0.0100 H   0  0  0  0  0  0  0  0  0  0  0  0
    1.0819   -4.0847    0.7160 H   0  0  0  0  0  0  0  0  0  0  0  0
    2.7406   -4.1697    2.0409 H   0  0  0  0  0  0  0  0  0  0  0  0
    4.2094   -3.3774    2.4929 H   0  0  0  0  0  0  0  0  0  0  0  0
    4.8850   -2.9345    0.1772 H   0  0  0  0  0  0  0  0  0  0  0  0
    3.3893   -3.6229   -0.4587 H   0  0  0  0  0  0  0  0  0  0  0  0
    5.6749   -5.0190   -0.0907 H   0  0  0  0  0  0  0  0  0  0  0  0
    6.5977   -6.4694    1.3367 H   0  0  0  0  0  0  0  0  0  0  0  0
    4.6248  -10.7748   -0.1394 H   0  0  0  0  0  0  0  0  0  0  0  0
    0.2445   -8.5517   -0.7824 H   0  0  0  0  0  0  0  0  0  0  0  0
   -0.9628   -7.1035   -2.3818 H   0  0  0  0  0  0  0  0  0  0  0  0
    0.3050   -5.6516   -3.9460 H   0  0  0  0  0  0  0  0  0  0  0  0
    2.7831   -5.6732   -3.9270 H   0  0  0  0  0  0  0  0  0  0  0  0
    4.0066   -7.1415   -2.3744 H   0  0  0  0  0  0  0  0  0  0  0  0
  1  2  1  0  0  0  0
  1 34  1  0  0  0  0
  1 35  1  0  0  0  0
  1 36  1  0  0  0  0
  2  3  2  0  0  0  0
  2 32  1  0  0  0  0
  3  4  1  0  0  0  0
  4  5  2  0  0  0  0
  4  9  1  0  0  0  0
  5  6  1  0  0  0  0
  5 37  1  0  0  0  0
  6  7  2  0  0  0  0
  6 38  1  0  0  0  0
  7  8  1  0  0  0  0
  7 39  1  0  0  0  0
  8  9  2  0  0  0  0
  8 40  1  0  0  0  0
  9 10  1  0  0  0  0
 10 11  1  0  0  0  0
 10 32  1  0  0  0  0
 11 12  1  0  0  0  0
 11 41  1  0  0  0  0
 11 42  1  0  0  0  0
 12 13  1  0  0  0  0
 12 43  1  0  0  0  0
 12 44  1  0  0  0  0
 13 14  1  0  0  0  0
 13 45  1  0  0  0  0
 14 15  2  0  0  0  0
 14 16  1  0  0  0  0
 16 17  2  0  0  0  0
 16 23  1  0  0  0  0
 17 18  1  0  0  0  0
 17 46  1  0  0  0  0
 18 19  1  0  0  0  0
 18 20  2  0  0  0  0
 20 21  1  0  0  0  0
 20 22  1  0  0  0  0
 22 23  2  0  0  0  0
 22 47  1  0  0  0  0
 23 24  1  0  0  0  0
 24 25  2  0  0  0  0
 24 26  1  0  0  0  0
 26 27  2  0  0  0  0
 26 31  1  0  0  0  0
 27 28  1  0  0  0  0
 27 48  1  0  0  0  0
 28 29  2  0  0  0  0
 28 49  1  0  0  0  0
 29 30  1  0  0  0  0
 29 50  1  0  0  0  0
 30 31  2  0  0  0  0
 30 51  1  0  0  0  0
 31 52  1  0  0  0  0
 32 33  2  0  0  0  0
M  END
$$$$
