
 OpenBabel01122422483D

 46 49  0  0  0  0  0  0  0  0999 V2000
    0.9120   -0.3011   -0.2113 O   0  0  0  0  0  0  0  0  0  0  0  0
    2.1207   -0.0888   -0.1525 C   0  0  0  0  0  0  0  0  0  0  0  0
    2.7558    1.0184   -0.6716 N   0  0  0  0  0  0  0  0  0  0  0  0
    2.0256    2.0389   -1.3036 C   0  0  0  0  0  0  0  0  0  0  0  0
    1.2944    1.6554   -2.3783 N   0  0  0  0  0  0  0  0  0  0  0  0
    0.6953    2.6259   -3.0741 C   0  0  0  0  0  0  0  0  0  0  0  0
   -0.0030    2.1871   -4.1493 O   0  0  0  0  0  0  0  0  0  0  0  0
    0.7599    3.9647   -2.7827 C   0  0  0  0  0  0  0  0  0  0  0  0
    1.4935    4.3378   -1.6608 C   0  0  0  0  0  0  0  0  0  0  0  0
    2.1685    3.3794   -0.8764 C   0  0  0  0  0  0  0  0  0  0  0  0
    2.8869    3.8107    0.3589 C   0  0  0  0  0  0  0  0  0  0  0  0
    2.8741    3.0460    1.5428 C   0  0  0  0  0  0  0  0  0  0  0  0
    3.5389    3.4619    2.7020 C   0  0  0  0  0  0  0  0  0  0  0  0
    4.1883    4.6893    2.7280 C   0  0  0  0  0  0  0  0  0  0  0  0
    4.1858    5.4893    1.5914 C   0  0  0  0  0  0  0  0  0  0  0  0
    3.5591    5.0472    0.4198 C   0  0  0  0  0  0  0  0  0  0  0  0
    3.0080   -1.0258    0.6236 C   0  0  0  0  0  0  0  0  0  0  0  0
    2.5392   -2.2737    0.8094 C   0  0  0  0  0  0  0  0  0  0  0  0
    3.2142   -3.2477    1.5512 N   0  0  0  0  0  0  0  0  0  0  0  0
    2.6510   -4.5743    1.7243 C   0  0  0  0  0  0  0  0  0  0  0  0
    2.9326   -5.3562    2.8536 C   0  0  0  0  0  0  0  0  0  0  0  0
    2.3590   -6.6173    3.0082 C   0  0  0  0  0  0  0  0  0  0  0  0
    2.6356   -7.3366    4.1053 F   0  0  0  0  0  0  0  0  0  0  0  0
    1.5007   -7.1427    2.0562 C   0  0  0  0  0  0  0  0  0  0  0  0
    1.2010   -6.3896    0.9278 C   0  0  0  0  0  0  0  0  0  0  0  0
    1.7679   -5.1176    0.7684 C   0  0  0  0  0  0  0  0  0  0  0  0
    4.4583   -2.9324    2.1428 C   0  0  0  0  0  0  0  0  0  0  0  0
    5.2074   -3.6906    2.7528 O   0  0  0  0  0  0  0  0  0  0  0  0
    4.9400   -1.5356    1.9721 C   0  0  0  0  0  0  0  0  0  0  0  0
    4.2526   -0.6450    1.2496 C   0  0  0  0  0  0  0  0  0  0  0  0
    3.6706    1.2761   -0.3423 H   0  0  0  0  0  0  0  0  0  0  0  0
    0.1265    1.2261   -4.0482 H   0  0  0  0  0  0  0  0  0  0  0  0
    0.2442    4.6946   -3.3946 H   0  0  0  0  0  0  0  0  0  0  0  0
    1.5082    5.3910   -1.3905 H   0  0  0  0  0  0  0  0  0  0  0  0
    2.3103    2.1180    1.6026 H   0  0  0  0  0  0  0  0  0  0  0  0
    3.5209    2.8379    3.5927 H   0  0  0  0  0  0  0  0  0  0  0  0
    4.6769    5.0309    3.6370 H   0  0  0  0  0  0  0  0  0  0  0  0
    4.6642    6.4656    1.6146 H   0  0  0  0  0  0  0  0  0  0  0  0
    3.5921    5.7044   -0.4470 H   0  0  0  0  0  0  0  0  0  0  0  0
    1.5690   -2.5484    0.4066 H   0  0  0  0  0  0  0  0  0  0  0  0
    3.5701   -5.0038    3.6588 H   0  0  0  0  0  0  0  0  0  0  0  0
    1.0714   -8.1293    2.2028 H   0  0  0  0  0  0  0  0  0  0  0  0
    0.5323   -6.7862    0.1679 H   0  0  0  0  0  0  0  0  0  0  0  0
    1.5301   -4.5859   -0.1493 H   0  0  0  0  0  0  0  0  0  0  0  0
    5.8702   -1.2886    2.4688 H   0  0  0  0  0  0  0  0  0  0  0  0
    4.6283    0.3715    1.1857 H   0  0  0  0  0  0  0  0  0  0  0  0
  1  2  2  0  0  0  0
  2  3  1  0  0  0  0
  2 17  1  0  0  0  0
  3  4  1  0  0  0  0
  3 31  1  0  0  0  0
  4  5  2  0  0  0  0
  4 10  1  0  0  0  0
  5  6  1  0  0  0  0
  6  7  1  0  0  0  0
  6  8  2  0  0  0  0
  7 32  1  0  0  0  0
  8  9  1  0  0  0  0
  8 33  1  0  0  0  0
  9 10  2  0  0  0  0
  9 34  1  0  0  0  0
 10 11  1  0  0  0  0
 11 12  2  0  0  0  0
 11 16  1  0  0  0  0
 12 13  1  0  0  0  0
 12 35  1  0  0  0  0
 13 14  2  0  0  0  0
 13 36  1  0  0  0  0
 14 15  1  0  0  0  0
 14 37  1  0  0  0  0
 15 16  2  0  0  0  0
 15 38  1  0  0  0  0
 16 39  1  0  0  0  0
 17 18  2  0  0  0  0
 17 30  1  0  0  0  0
 18 19  1  0  0  0  0
 18 40  1  0  0  0  0
 19 20  1  0  0  0  0
 19 27  1  0  0  0  0
 20 21  2  0  0  0  0
 20 26  1  0  0  0  0
 21 22  1  0  0  0  0
 21 41  1  0  0  0  0
 22 23  1  0  0  0  0
 22 24  2  0  0  0  0
 24 25  1  0  0  0  0
 24 42  1  0  0  0  0
 25 26  2  0  0  0  0
 25 43  1  0  0  0  0
 26 44  1  0  0  0  0
 27 28  2  0  0  0  0
 27 29  1  0  0  0  0
 29 30  2  0  0  0  0
 29 45  1  0  0  0  0
 30 46  1  0  0  0  0
M  END
$$$$
