
 OpenBabel01122422483D

 45 48  0  0  0  0  0  0  0  0999 V2000
    0.9962   -0.3545    0.0582 O   0  0  0  0  0  0  0  0  0  0  0  0
    2.1860   -0.0352    0.0453 C   0  0  0  0  0  0  0  0  0  0  0  0
    2.8130    0.7522    0.9927 N   0  0  0  0  0  0  0  0  0  0  0  0
    2.2221    1.1824    2.2158 C   0  0  0  0  0  0  0  0  0  0  0  0
    1.0388    0.6163    2.6958 C   0  0  0  0  0  0  0  0  0  0  0  0
    0.4523    1.0781    3.8667 C   0  0  0  0  0  0  0  0  0  0  0  0
    1.0596    2.0936    4.5935 C   0  0  0  0  0  0  0  0  0  0  0  0
    2.2740    2.6433    4.1792 C   0  0  0  0  0  0  0  0  0  0  0  0
    2.9504    3.6465    4.9264 N   0  0  0  0  0  0  0  0  0  0  0  0
    2.5649    4.1385    6.1658 C   0  0  0  0  0  0  0  0  0  0  0  0
    1.5814    3.7744    6.8063 O   0  0  0  0  0  0  0  0  0  0  0  0
    3.3797    5.2267    6.7771 C   0  0  0  0  0  0  0  0  0  0  0  0
    2.9647    5.7186    8.0267 C   0  0  0  0  0  0  0  0  0  0  0  0
    3.5387    6.8729    8.5773 C   0  0  0  0  0  0  0  0  0  0  0  0
    3.1181    7.4068    9.7964 C   0  0  0  0  0  0  0  0  0  0  0  0
    3.5144    8.6059   10.2747 N   0  0  0  0  0  0  0  0  0  0  0  0
    4.3863    9.2988    9.5145 C   0  0  0  0  0  0  0  0  0  0  0  0
    4.9488    8.8124    8.3425 C   0  0  0  0  0  0  0  0  0  0  0  0
    4.5336    7.5632    7.8625 C   0  0  0  0  0  0  0  0  0  0  0  0
    5.0396    6.9929    6.6801 C   0  0  0  0  0  0  0  0  0  0  0  0
    4.4636    5.8342    6.1506 C   0  0  0  0  0  0  0  0  0  0  0  0
    4.9573    5.3463    5.0017 F   0  0  0  0  0  0  0  0  0  0  0  0
    2.8478    2.1872    2.9753 C   0  0  0  0  0  0  0  0  0  0  0  0
    3.0282   -0.4814   -1.1132 C   0  0  0  0  0  0  0  0  0  0  0  0
    2.3577   -0.7878   -2.2420 C   0  0  0  0  0  0  0  0  0  0  0  0
    3.0071   -1.3235   -3.3270 N   0  0  0  0  0  0  0  0  0  0  0  0
    4.3480   -1.6154   -3.3470 C   0  0  0  0  0  0  0  0  0  0  0  0
    4.9079   -2.1222   -4.3104 O   0  0  0  0  0  0  0  0  0  0  0  0
    5.0939   -1.2860   -2.1018 C   0  0  0  0  0  0  0  0  0  0  0  0
    4.4509   -0.7495   -1.0498 C   0  0  0  0  0  0  0  0  0  0  0  0
    3.7250    1.1354    0.7695 H   0  0  0  0  0  0  0  0  0  0  0  0
    0.5363   -0.2028    2.1911 H   0  0  0  0  0  0  0  0  0  0  0  0
   -0.4808    0.6433    4.2159 H   0  0  0  0  0  0  0  0  0  0  0  0
    0.5407    2.4248    5.4860 H   0  0  0  0  0  0  0  0  0  0  0  0
    3.8031    4.0148    4.5197 H   0  0  0  0  0  0  0  0  0  0  0  0
    2.1324    5.2415    8.5451 H   0  0  0  0  0  0  0  0  0  0  0  0
    2.4158    6.8747   10.4339 H   0  0  0  0  0  0  0  0  0  0  0  0
    4.6215   10.2950    9.8787 H   0  0  0  0  0  0  0  0  0  0  0  0
    5.6560    9.4255    7.7943 H   0  0  0  0  0  0  0  0  0  0  0  0
    5.8613    7.4611    6.1441 H   0  0  0  0  0  0  0  0  0  0  0  0
    3.7775    2.6257    2.6245 H   0  0  0  0  0  0  0  0  0  0  0  0
    1.2831   -0.6597   -2.3485 H   0  0  0  0  0  0  0  0  0  0  0  0
    2.4830   -1.5738   -4.1577 H   0  0  0  0  0  0  0  0  0  0  0  0
    6.1478   -1.5274   -2.0961 H   0  0  0  0  0  0  0  0  0  0  0  0
    4.9922   -0.5551   -0.1310 H   0  0  0  0  0  0  0  0  0  0  0  0
  1  2  2  0  0  0  0
  2  3  1  0  0  0  0
  2 24  1  0  0  0  0
  3  4  1  0  0  0  0
  3 31  1  0  0  0  0
  4  5  2  0  0  0  0
  4 23  1  0  0  0  0
  5  6  1  0  0  0  0
  5 32  1  0  0  0  0
  6  7  2  0  0  0  0
  6 33  1  0  0  0  0
  7  8  1  0  0  0  0
  7 34  1  0  0  0  0
  8  9  1  0  0  0  0
  8 23  2  0  0  0  0
  9 10  1  0  0  0  0
  9 35  1  0  0  0  0
 10 11  2  0  0  0  0
 10 12  1  0  0  0  0
 12 13  2  0  0  0  0
 12 21  1  0  0  0  0
 13 14  1  0  0  0  0
 13 36  1  0  0  0  0
 14 15  2  0  0  0  0
 14 19  1  0  0  0  0
 15 16  1  0  0  0  0
 15 37  1  0  0  0  0
 16 17  2  0  0  0  0
 17 18  1  0  0  0  0
 17 38  1  0  0  0  0
 18 19  2  0  0  0  0
 18 39  1  0  0  0  0
 19 20  1  0  0  0  0
 20 21  2  0  0  0  0
 20 40  1  0  0  0  0
 21 22  1  0  0  0  0
 23 41  1  0  0  0  0
 24 25  2  0  0  0  0
 24 30  1  0  0  0  0
 25 26  1  0  0  0  0
 25 42  1  0  0  0  0
 26 27  1  0  0  0  0
 26 43  1  0  0  0  0
 27 28  2  0  0  0  0
 27 29  1  0  0  0  0
 29 30  2  0  0  0  0
 29 44  1  0  0  0  0
 30 45  1  0  0  0  0
M  END
$$$$
