
 OpenBabel01122422483D

 48 51  0  0  0  0  0  0  0  0999 V2000
    0.8149    0.4243    3.0718 C   0  0  0  0  0  0  0  0  0  0  0  0
    0.3213   -0.9898    2.9764 C   0  0  0  0  0  0  0  0  0  0  0  0
    0.6314   -1.9217    3.9726 C   0  0  0  0  0  0  0  0  0  0  0  0
    0.1337   -3.2219    3.9028 C   0  0  0  0  0  0  0  0  0  0  0  0
   -0.6907   -3.6039    2.8436 C   0  0  0  0  0  0  0  0  0  0  0  0
   -1.0088   -2.6838    1.8354 C   0  0  0  0  0  0  0  0  0  0  0  0
   -1.8675   -3.0501    0.7670 N   0  0  0  0  0  0  0  0  0  0  0  0
   -2.5343   -4.2353    0.5736 C   0  0  0  0  0  0  0  0  0  0  0  0
   -3.2400   -4.0660   -0.5978 C   0  0  0  0  0  0  0  0  0  0  0  0
   -4.1135   -5.0385   -1.2345 C   0  0  0  0  0  0  0  0  0  0  0  0
   -4.3475   -6.1383   -0.7497 O   0  0  0  0  0  0  0  0  0  0  0  0
   -4.6503   -4.6079   -2.4261 N   0  0  0  0  0  0  0  0  0  0  0  0
   -5.5991   -5.4021   -3.1687 C   0  0  0  0  0  0  0  0  0  0  0  0
   -7.0257   -5.1493   -2.7378 C   0  0  0  0  0  0  0  0  0  0  0  0
   -7.5667   -5.8743   -1.6816 C   0  0  0  0  0  0  0  0  0  0  0  0
   -8.9065   -5.6847   -1.3516 C   0  0  0  0  0  0  0  0  0  0  0  0
   -9.5562   -6.3786   -0.3545 O   0  0  0  0  0  0  0  0  0  0  0  0
   -9.2447   -7.7035   -0.1356 C   0  0  0  0  0  0  0  0  0  0  0  0
   -8.8501   -8.5948   -1.1447 C   0  0  0  0  0  0  0  0  0  0  0  0
   -8.5339   -9.9193   -0.8353 C   0  0  0  0  0  0  0  0  0  0  0  0
   -8.6670  -10.3624    0.4759 C   0  0  0  0  0  0  0  0  0  0  0  0
   -8.3733  -11.6370    0.7687 F   0  0  0  0  0  0  0  0  0  0  0  0
   -9.1080   -9.4948    1.4692 C   0  0  0  0  0  0  0  0  0  0  0  0
   -9.2474   -9.9312    2.7278 F   0  0  0  0  0  0  0  0  0  0  0  0
   -9.3995   -8.1666    1.1736 C   0  0  0  0  0  0  0  0  0  0  0  0
   -9.6413   -4.7108   -2.0151 C   0  0  0  0  0  0  0  0  0  0  0  0
   -9.0150   -4.0018   -3.0246 C   0  0  0  0  0  0  0  0  0  0  0  0
   -7.7340   -4.2062   -3.4079 N   0  0  0  0  0  0  0  0  0  0  0  0
   -2.9901   -2.8120   -1.0878 N   0  0  0  0  0  0  0  0  0  0  0  0
   -2.1613   -2.2002   -0.2510 N   0  0  0  0  0  0  0  0  0  0  0  0
   -0.4877   -1.3811    1.8982 C   0  0  0  0  0  0  0  0  0  0  0  0
    1.4510    0.5676    3.9517 H   0  0  0  0  0  0  0  0  0  0  0  0
   -0.0345    1.1098    3.1593 H   0  0  0  0  0  0  0  0  0  0  0  0
    1.4020    0.6859    2.1863 H   0  0  0  0  0  0  0  0  0  0  0  0
    1.2585   -1.6392    4.8155 H   0  0  0  0  0  0  0  0  0  0  0  0
    0.3810   -3.9382    4.6829 H   0  0  0  0  0  0  0  0  0  0  0  0
   -1.0636   -4.6235    2.8379 H   0  0  0  0  0  0  0  0  0  0  0  0
   -2.4777   -5.0740    1.2482 H   0  0  0  0  0  0  0  0  0  0  0  0
   -4.4986   -3.6443   -2.7032 H   0  0  0  0  0  0  0  0  0  0  0  0
   -5.3589   -6.4667   -3.0592 H   0  0  0  0  0  0  0  0  0  0  0  0
   -5.4821   -5.1489   -4.2275 H   0  0  0  0  0  0  0  0  0  0  0  0
   -6.9506   -6.5927   -1.1502 H   0  0  0  0  0  0  0  0  0  0  0  0
   -8.7662   -8.2677   -2.1784 H   0  0  0  0  0  0  0  0  0  0  0  0
   -8.1866  -10.5986   -1.6053 H   0  0  0  0  0  0  0  0  0  0  0  0
   -9.7357   -7.5011    1.9624 H   0  0  0  0  0  0  0  0  0  0  0  0
  -10.6749   -4.5119   -1.7566 H   0  0  0  0  0  0  0  0  0  0  0  0
   -9.5446   -3.2291   -3.5754 H   0  0  0  0  0  0  0  0  0  0  0  0
   -0.7195   -0.6512    1.1231 H   0  0  0  0  0  0  0  0  0  0  0  0
  1  2  1  0  0  0  0
  1 32  1  0  0  0  0
  1 33  1  0  0  0  0
  1 34  1  0  0  0  0
  2  3  2  0  0  0  0
  2 31  1  0  0  0  0
  3  4  1  0  0  0  0
  3 35  1  0  0  0  0
  4  5  2  0  0  0  0
  4 36  1  0  0  0  0
  5  6  1  0  0  0  0
  5 37  1  0  0  0  0
  6  7  1  0  0  0  0
  6 31  2  0  0  0  0
  7  8  1  0  0  0  0
  7 30  1  0  0  0  0
  8  9  2  0  0  0  0
  8 38  1  0  0  0  0
  9 10  1  0  0  0  0
  9 29  1  0  0  0  0
 10 11  2  0  0  0  0
 10 12  1  0  0  0  0
 12 13  1  0  0  0  0
 12 39  1  0  0  0  0
 13 14  1  0  0  0  0
 13 40  1  0  0  0  0
 13 41  1  0  0  0  0
 14 15  2  0  0  0  0
 14 28  1  0  0  0  0
 15 16  1  0  0  0  0
 15 42  1  0  0  0  0
 16 17  1  0  0  0  0
 16 26  2  0  0  0  0
 17 18  1  0  0  0  0
 18 19  2  0  0  0  0
 18 25  1  0  0  0  0
 19 20  1  0  0  0  0
 19 43  1  0  0  0  0
 20 21  2  0  0  0  0
 20 44  1  0  0  0  0
 21 22  1  0  0  0  0
 21 23  1  0  0  0  0
 23 24  1  0  0  0  0
 23 25  2  0  0  0  0
 25 45  1  0  0  0  0
 26 27  1  0  0  0  0
 26 46  1  0  0  0  0
 27 28  2  0  0  0  0
 27 47  1  0  0  0  0
 29 30  2  0  0  0  0
 31 48  1  0  0  0  0
M  END
$$$$
