
 OpenBabel01122422483D

 52 55  0  0  0  0  0  0  0  0999 V2000
    1.8979    0.1126   -0.7771 C   0  0  0  0  0  0  0  0  0  0  0  0
    0.6623   -0.2140   -0.0421 C   0  0  0  0  0  0  0  0  0  0  0  0
   -0.0417   -1.3547    0.2877 C   0  0  0  0  0  0  0  0  0  0  0  0
    0.2054   -2.7612    0.0375 C   0  0  0  0  0  0  0  0  0  0  0  0
   -0.7550   -3.5010   -0.1581 O   0  0  0  0  0  0  0  0  0  0  0  0
    1.5236   -3.1816    0.1418 N   0  0  0  0  0  0  0  0  0  0  0  0
    1.9704   -4.5261    0.0326 C   0  0  0  0  0  0  0  0  0  0  0  0
    1.1881   -5.5578   -0.4972 C   0  0  0  0  0  0  0  0  0  0  0  0
    1.6643   -6.8749   -0.5476 C   0  0  0  0  0  0  0  0  0  0  0  0
    2.9396   -7.1916   -0.0711 C   0  0  0  0  0  0  0  0  0  0  0  0
    3.3736   -8.6129   -0.1683 C   0  0  0  0  0  0  0  0  0  0  0  0
    2.9513   -9.3217   -1.0742 O   0  0  0  0  0  0  0  0  0  0  0  0
    4.2495   -9.0594    0.7994 N   0  0  0  0  0  0  0  0  0  0  0  0
    4.6727  -10.4485    0.8270 C   0  0  0  0  0  0  0  0  0  0  0  0
    6.0506  -10.5590    1.4240 C   0  0  0  0  0  0  0  0  0  0  0  0
    7.1783  -10.4524    0.6006 C   0  0  0  0  0  0  0  0  0  0  0  0
    8.4561  -10.4986    1.1492 C   0  0  0  0  0  0  0  0  0  0  0  0
    8.6179  -10.6180    2.5304 C   0  0  0  0  0  0  0  0  0  0  0  0
    7.5109  -10.6903    3.3959 C   0  0  0  0  0  0  0  0  0  0  0  0
    7.6803  -10.7004    4.8641 C   0  0  0  0  0  0  0  0  0  0  0  0
    8.6931   -9.9696    5.4925 C   0  0  0  0  0  0  0  0  0  0  0  0
    8.7844   -9.9741    6.8804 C   0  0  0  0  0  0  0  0  0  0  0  0
    7.8658  -10.7081    7.6150 C   0  0  0  0  0  0  0  0  0  0  0  0
    6.8862  -11.4024    6.9263 C   0  0  0  0  0  0  0  0  0  0  0  0
    6.7687  -11.4073    5.5755 N   0  0  0  0  0  0  0  0  0  0  0  0
    6.2290  -10.6938    2.8123 C   0  0  0  0  0  0  0  0  0  0  0  0
    3.7440   -6.1571    0.4188 C   0  0  0  0  0  0  0  0  0  0  0  0
    5.0355   -6.3436    0.8362 O   0  0  0  0  0  0  0  0  0  0  0  0
    3.2643   -4.8378    0.4742 C   0  0  0  0  0  0  0  0  0  0  0  0
   -1.2122   -0.8444    0.9022 C   0  0  0  0  0  0  0  0  0  0  0  0
   -1.2081    0.4844    0.9912 N   0  0  0  0  0  0  0  0  0  0  0  0
   -0.0306    0.8807    0.3898 O   0  0  0  0  0  0  0  0  0  0  0  0
    2.4444   -0.7799   -1.0872 H   0  0  0  0  0  0  0  0  0  0  0  0
    2.5582    0.7236   -0.1529 H   0  0  0  0  0  0  0  0  0  0  0  0
    1.6574    0.6919   -1.6756 H   0  0  0  0  0  0  0  0  0  0  0  0
    2.1980   -2.5076    0.4823 H   0  0  0  0  0  0  0  0  0  0  0  0
    0.1953   -5.3784   -0.9001 H   0  0  0  0  0  0  0  0  0  0  0  0
    1.0262   -7.6529   -0.9648 H   0  0  0  0  0  0  0  0  0  0  0  0
    4.2981   -8.5505    1.6758 H   0  0  0  0  0  0  0  0  0  0  0  0
    4.6646  -10.8692   -0.1857 H   0  0  0  0  0  0  0  0  0  0  0  0
    3.9436  -11.0181    1.4144 H   0  0  0  0  0  0  0  0  0  0  0  0
    7.0640  -10.3345   -0.4752 H   0  0  0  0  0  0  0  0  0  0  0  0
    9.3292  -10.4284    0.5055 H   0  0  0  0  0  0  0  0  0  0  0  0
    9.6304  -10.6511    2.9276 H   0  0  0  0  0  0  0  0  0  0  0  0
    9.3950   -9.3780    4.9158 H   0  0  0  0  0  0  0  0  0  0  0  0
    9.5616   -9.4014    7.3797 H   0  0  0  0  0  0  0  0  0  0  0  0
    7.9034  -10.7270    8.6982 H   0  0  0  0  0  0  0  0  0  0  0  0
    6.1418  -11.9870    7.4584 H   0  0  0  0  0  0  0  0  0  0  0  0
    5.3556  -10.7765    3.4594 H   0  0  0  0  0  0  0  0  0  0  0  0
    5.3590   -7.1973    0.4866 H   0  0  0  0  0  0  0  0  0  0  0  0
    3.9168   -4.0664    0.8732 H   0  0  0  0  0  0  0  0  0  0  0  0
   -2.0575   -1.3979    1.2902 H   0  0  0  0  0  0  0  0  0  0  0  0
  1  2  1  0  0  0  0
  1 33  1  0  0  0  0
  1 34  1  0  0  0  0
  1 35  1  0  0  0  0
  2  3  2  0  0  0  0
  2 32  1  0  0  0  0
  3  4  1  0  0  0  0
  3 30  1  0  0  0  0
  4  5  2  0  0  0  0
  4  6  1  0  0  0  0
  6  7  1  0  0  0  0
  6 36  1  0  0  0  0
  7  8  2  0  0  0  0
  7 29  1  0  0  0  0
  8  9  1  0  0  0  0
  8 37  1  0  0  0  0
  9 10  2  0  0  0  0
  9 38  1  0  0  0  0
 10 11  1  0  0  0  0
 10 27  1  0  0  0  0
 11 12  2  0  0  0  0
 11 13  1  0  0  0  0
 13 14  1  0  0  0  0
 13 39  1  0  0  0  0
 14 15  1  0  0  0  0
 14 40  1  0  0  0  0
 14 41  1  0  0  0  0
 15 16  2  0  0  0  0
 15 26  1  0  0  0  0
 16 17  1  0  0  0  0
 16 42  1  0  0  0  0
 17 18  2  0  0  0  0
 17 43  1  0  0  0  0
 18 19  1  0  0  0  0
 18 44  1  0  0  0  0
 19 20  1  0  0  0  0
 19 26  2  0  0  0  0
 20 21  2  0  0  0  0
 20 25  1  0  0  0  0
 21 22  1  0  0  0  0
 21 45  1  0  0  0  0
 22 23  2  0  0  0  0
 22 46  1  0  0  0  0
 23 24  1  0  0  0  0
 23 47  1  0  0  0  0
 24 25  2  0  0  0  0
 24 48  1  0  0  0  0
 26 49  1  0  0  0  0
 27 28  1  0  0  0  0
 27 29  2  0  0  0  0
 28 50  1  0  0  0  0
 29 51  1  0  0  0  0
 30 31  2  0  0  0  0
 30 52  1  0  0  0  0
 31 32  1  0  0  0  0
M  END
$$$$
