
 OpenBabel01122422483D

 48 51  0  0  0  0  0  0  0  0999 V2000
    1.1366    0.2911    0.1750 O   0  0  0  0  0  0  0  0  0  0  0  0
    2.2427   -0.1785    0.0837 C   0  0  0  0  0  0  0  0  0  0  0  0
    2.8944   -0.7746    1.1067 O   0  0  0  0  0  0  0  0  0  0  0  0
    3.0481   -0.1082   -1.1634 C   0  0  0  0  0  0  0  0  0  0  0  0
    2.9290    1.0199   -1.9698 C   0  0  0  0  0  0  0  0  0  0  0  0
    3.6544    1.1093   -3.1640 C   0  0  0  0  0  0  0  0  0  0  0  0
    4.5197    0.0795   -3.5763 C   0  0  0  0  0  0  0  0  0  0  0  0
    5.3062    0.1780   -4.8337 C   0  0  0  0  0  0  0  0  0  0  0  0
    5.7860    1.4135   -5.3021 C   0  0  0  0  0  0  0  0  0  0  0  0
    6.5433    1.5046   -6.4750 C   0  0  0  0  0  0  0  0  0  0  0  0
    6.8614    0.3536   -7.1929 C   0  0  0  0  0  0  0  0  0  0  0  0
    6.4242   -0.8969   -6.7473 C   0  0  0  0  0  0  0  0  0  0  0  0
    6.8109   -2.1561   -7.4786 C   0  0  0  0  0  0  0  0  0  0  0  0
    5.7762   -2.5911   -8.3835 N   0  0  0  0  0  0  0  0  0  0  0  0
    5.9780   -3.7114   -9.1605 C   0  0  0  0  0  0  0  0  0  0  0  0
    6.9334   -4.4680   -9.0405 O   0  0  0  0  0  0  0  0  0  0  0  0
    5.0004   -3.9074  -10.2614 C   0  0  0  0  0  0  0  0  0  0  0  0
    5.4846   -4.3538  -11.4961 C   0  0  0  0  0  0  0  0  0  0  0  0
    4.6443   -4.3861  -12.6079 C   0  0  0  0  0  0  0  0  0  0  0  0
    3.3028   -4.0698  -12.4235 C   0  0  0  0  0  0  0  0  0  0  0  0
    2.3454   -4.1271  -13.5422 C   0  0  0  0  0  0  0  0  0  0  0  0
    2.5869   -3.6661  -14.6482 O   0  0  0  0  0  0  0  0  0  0  0  0
    1.0622   -4.7791  -13.2036 C   0  0  0  0  0  0  0  0  0  0  0  0
    0.6447   -4.5788  -11.9457 C   0  0  0  0  0  0  0  0  0  0  0  0
    1.3586   -3.8617  -11.0031 N   0  0  0  0  0  0  0  0  0  0  0  0
    2.7640   -3.8228  -11.1468 C   0  0  0  0  0  0  0  0  0  0  0  0
    3.6291   -3.6516  -10.0749 C   0  0  0  0  0  0  0  0  0  0  0  0
    5.6240   -0.9647   -5.5930 C   0  0  0  0  0  0  0  0  0  0  0  0
    4.6165   -1.0536   -2.7450 C   0  0  0  0  0  0  0  0  0  0  0  0
    3.8762   -1.1622   -1.5573 C   0  0  0  0  0  0  0  0  0  0  0  0
    3.8433   -0.9398    0.9507 H   0  0  0  0  0  0  0  0  0  0  0  0
    2.2658    1.8361   -1.6789 H   0  0  0  0  0  0  0  0  0  0  0  0
    3.5192    2.0011   -3.7756 H   0  0  0  0  0  0  0  0  0  0  0  0
    5.5938    2.3311   -4.7516 H   0  0  0  0  0  0  0  0  0  0  0  0
    6.8978    2.4740   -6.8139 H   0  0  0  0  0  0  0  0  0  0  0  0
    7.4697    0.4406   -8.0913 H   0  0  0  0  0  0  0  0  0  0  0  0
    7.0219   -2.9639   -6.7674 H   0  0  0  0  0  0  0  0  0  0  0  0
    7.7301   -1.9960   -8.0540 H   0  0  0  0  0  0  0  0  0  0  0  0
    5.1007   -1.9026   -8.6859 H   0  0  0  0  0  0  0  0  0  0  0  0
    6.5281   -4.6609  -11.6022 H   0  0  0  0  0  0  0  0  0  0  0  0
    5.0066   -4.7047  -13.5777 H   0  0  0  0  0  0  0  0  0  0  0  0
    0.5538   -5.3532  -13.9621 H   0  0  0  0  0  0  0  0  0  0  0  0
   -0.2785   -5.0172  -11.5797 H   0  0  0  0  0  0  0  0  0  0  0  0
    0.9755   -3.8105  -10.0657 H   0  0  0  0  0  0  0  0  0  0  0  0
    3.2466   -3.3953   -9.0905 H   0  0  0  0  0  0  0  0  0  0  0  0
    5.2561   -1.9422   -5.2852 H   0  0  0  0  0  0  0  0  0  0  0  0
    5.2773   -1.8765   -3.0033 H   0  0  0  0  0  0  0  0  0  0  0  0
    3.9430   -2.0760   -0.9796 H   0  0  0  0  0  0  0  0  0  0  0  0
  1  2  2  0  0  0  0
  2  3  1  0  0  0  0
  2  4  1  0  0  0  0
  3 31  1  0  0  0  0
  4  5  2  0  0  0  0
  4 30  1  0  0  0  0
  5  6  1  0  0  0  0
  5 32  1  0  0  0  0
  6  7  2  0  0  0  0
  6 33  1  0  0  0  0
  7  8  1  0  0  0  0
  7 29  1  0  0  0  0
  8  9  2  0  0  0  0
  8 28  1  0  0  0  0
  9 10  1  0  0  0  0
  9 34  1  0  0  0  0
 10 11  2  0  0  0  0
 10 35  1  0  0  0  0
 11 12  1  0  0  0  0
 11 36  1  0  0  0  0
 12 13  1  0  0  0  0
 12 28  2  0  0  0  0
 13 14  1  0  0  0  0
 13 37  1  0  0  0  0
 13 38  1  0  0  0  0
 14 15  1  0  0  0  0
 14 39  1  0  0  0  0
 15 16  2  0  0  0  0
 15 17  1  0  0  0  0
 17 18  2  0  0  0  0
 17 27  1  0  0  0  0
 18 19  1  0  0  0  0
 18 40  1  0  0  0  0
 19 20  2  0  0  0  0
 19 41  1  0  0  0  0
 20 21  1  0  0  0  0
 20 26  1  0  0  0  0
 21 22  2  0  0  0  0
 21 23  1  0  0  0  0
 23 24  2  0  0  0  0
 23 42  1  0  0  0  0
 24 25  1  0  0  0  0
 24 43  1  0  0  0  0
 25 26  1  0  0  0  0
 25 44  1  0  0  0  0
 26 27  2  0  0  0  0
 27 45  1  0  0  0  0
 28 46  1  0  0  0  0
 29 30  2  0  0  0  0
 29 47  1  0  0  0  0
 30 48  1  0  0  0  0
M  END
$$$$
