
 OpenBabel01122422483D

 54 57  0  0  0  0  0  0  0  0999 V2000
    0.2317   -0.1084    1.1701 N   0  0  0  0  0  0  0  0  0  0  0  0
   -0.1603    0.0101   -0.1367 C   0  0  0  0  0  0  0  0  0  0  0  0
   -0.0739    1.0731   -0.7326 O   0  0  0  0  0  0  0  0  0  0  0  0
   -0.6856   -1.2472   -0.7762 C   0  0  0  0  0  0  0  0  0  0  0  0
   -1.0552   -1.2433   -2.1163 C   0  0  0  0  0  0  0  0  0  0  0  0
   -1.5474   -2.4183   -2.6963 C   0  0  0  0  0  0  0  0  0  0  0  0
   -2.0244   -2.4741   -4.1298 C   0  0  0  0  0  0  0  0  0  0  0  0
   -0.9787   -2.2390   -5.1045 N   0  0  0  0  0  0  0  0  0  0  0  0
   -0.6811   -0.9665   -5.5316 C   0  0  0  0  0  0  0  0  0  0  0  0
   -1.2453    0.0232   -5.0790 O   0  0  0  0  0  0  0  0  0  0  0  0
    0.4110   -0.8826   -6.5823 C   0  0  0  0  0  0  0  0  0  0  0  0
   -0.1003   -1.0819   -8.0091 C   0  0  0  0  0  0  0  0  0  0  0  0
   -1.0479   -0.0133   -8.4292 C   0  0  0  0  0  0  0  0  0  0  0  0
   -1.4809    1.0016   -7.7160 N   0  0  0  0  0  0  0  0  0  0  0  0
   -2.3603    1.6472   -8.5394 C   0  0  0  0  0  0  0  0  0  0  0  0
   -3.1033    2.8306   -8.1362 C   0  0  0  0  0  0  0  0  0  0  0  0
   -2.5384    3.7282   -7.2251 C   0  0  0  0  0  0  0  0  0  0  0  0
   -3.1640    4.9508   -6.9635 C   0  0  0  0  0  0  0  0  0  0  0  0
   -4.3521    5.2835   -7.6147 C   0  0  0  0  0  0  0  0  0  0  0  0
   -4.9529    4.3713   -8.4749 C   0  0  0  0  0  0  0  0  0  0  0  0
   -4.3521    3.1331   -8.6973 C   0  0  0  0  0  0  0  0  0  0  0  0
   -2.3438    1.0514   -9.7893 C   0  0  0  0  0  0  0  0  0  0  0  0
   -2.9385    1.3637  -11.0820 C   0  0  0  0  0  0  0  0  0  0  0  0
   -3.0816    2.7081  -11.4699 C   0  0  0  0  0  0  0  0  0  0  0  0
   -3.8202    3.0618  -12.5963 C   0  0  0  0  0  0  0  0  0  0  0  0
   -4.3657    2.0662  -13.3961 C   0  0  0  0  0  0  0  0  0  0  0  0
   -4.1735    0.7231  -13.0666 C   0  0  0  0  0  0  0  0  0  0  0  0
   -3.4695    0.3706  -11.9093 C   0  0  0  0  0  0  0  0  0  0  0  0
   -1.5325   -0.0579   -9.7087 O   0  0  0  0  0  0  0  0  0  0  0  0
   -1.6615   -3.5485   -1.8713 C   0  0  0  0  0  0  0  0  0  0  0  0
   -1.2737   -3.4571   -0.5393 C   0  0  0  0  0  0  0  0  0  0  0  0
   -0.7792   -2.3392    0.0349 N   0  0  0  0  0  0  0  0  0  0  0  0
    0.6243    0.6921    1.6368 H   0  0  0  0  0  0  0  0  0  0  0  0
    0.2019   -1.0141    1.6240 H   0  0  0  0  0  0  0  0  0  0  0  0
   -0.9683   -0.3227   -2.6924 H   0  0  0  0  0  0  0  0  0  0  0  0
   -2.8413   -1.7515   -4.2707 H   0  0  0  0  0  0  0  0  0  0  0  0
   -2.4249   -3.4661   -4.3535 H   0  0  0  0  0  0  0  0  0  0  0  0
   -0.5286   -3.0355   -5.5333 H   0  0  0  0  0  0  0  0  0  0  0  0
    1.1694   -1.6416   -6.3551 H   0  0  0  0  0  0  0  0  0  0  0  0
    0.9052    0.0904   -6.4744 H   0  0  0  0  0  0  0  0  0  0  0  0
   -0.5829   -2.0603   -8.1101 H   0  0  0  0  0  0  0  0  0  0  0  0
    0.7583   -1.0705   -8.6907 H   0  0  0  0  0  0  0  0  0  0  0  0
   -1.5964    3.4903   -6.7338 H   0  0  0  0  0  0  0  0  0  0  0  0
   -2.7097    5.6503   -6.2676 H   0  0  0  0  0  0  0  0  0  0  0  0
   -4.8142    6.2522   -7.4443 H   0  0  0  0  0  0  0  0  0  0  0  0
   -5.8735    4.6231   -8.9935 H   0  0  0  0  0  0  0  0  0  0  0  0
   -4.8497    2.4318   -9.3628 H   0  0  0  0  0  0  0  0  0  0  0  0
   -2.6656    3.5060  -10.8567 H   0  0  0  0  0  0  0  0  0  0  0  0
   -3.9801    4.1118  -12.8265 H   0  0  0  0  0  0  0  0  0  0  0  0
   -4.9421    2.3380  -14.2762 H   0  0  0  0  0  0  0  0  0  0  0  0
   -4.5963   -0.0514  -13.7004 H   0  0  0  0  0  0  0  0  0  0  0  0
   -3.3718   -0.6790  -11.6425 H   0  0  0  0  0  0  0  0  0  0  0  0
   -2.0715   -4.4812   -2.2470 H   0  0  0  0  0  0  0  0  0  0  0  0
   -1.3681   -4.3144    0.1241 H   0  0  0  0  0  0  0  0  0  0  0  0
  1  2  1  0  0  0  0
  1 33  1  0  0  0  0
  1 34  1  0  0  0  0
  2  3  2  0  0  0  0
  2  4  1  0  0  0  0
  4  5  2  0  0  0  0
  4 32  1  0  0  0  0
  5  6  1  0  0  0  0
  5 35  1  0  0  0  0
  6  7  1  0  0  0  0
  6 30  2  0  0  0  0
  7  8  1  0  0  0  0
  7 36  1  0  0  0  0
  7 37  1  0  0  0  0
  8  9  1  0  0  0  0
  8 38  1  0  0  0  0
  9 10  2  0  0  0  0
  9 11  1  0  0  0  0
 11 12  1  0  0  0  0
 11 39  1  0  0  0  0
 11 40  1  0  0  0  0
 12 13  1  0  0  0  0
 12 41  1  0  0  0  0
 12 42  1  0  0  0  0
 13 14  2  0  0  0  0
 13 29  1  0  0  0  0
 14 15  1  0  0  0  0
 15 16  1  0  0  0  0
 15 22  2  0  0  0  0
 16 17  2  0  0  0  0
 16 21  1  0  0  0  0
 17 18  1  0  0  0  0
 17 43  1  0  0  0  0
 18 19  2  0  0  0  0
 18 44  1  0  0  0  0
 19 20  1  0  0  0  0
 19 45  1  0  0  0  0
 20 21  2  0  0  0  0
 20 46  1  0  0  0  0
 21 47  1  0  0  0  0
 22 23  1  0  0  0  0
 22 29  1  0  0  0  0
 23 24  2  0  0  0  0
 23 28  1  0  0  0  0
 24 25  1  0  0  0  0
 24 48  1  0  0  0  0
 25 26  2  0  0  0  0
 25 49  1  0  0  0  0
 26 27  1  0  0  0  0
 26 50  1  0  0  0  0
 27 28  2  0  0  0  0
 27 51  1  0  0  0  0
 28 52  1  0  0  0  0
 30 31  1  0  0  0  0
 30 53  1  0  0  0  0
 31 32  2  0  0  0  0
 31 54  1  0  0  0  0
M  END
$$$$
