
 OpenBabel01122422483D

 50 53  0  0  0  0  0  0  0  0999 V2000
    1.0737    0.0207    0.0194 O   0  0  0  0  0  0  0  0  0  0  0  0
    2.2894   -0.1081   -0.0918 C   0  0  0  0  0  0  0  0  0  0  0  0
    2.9920   -1.1140    0.5380 N   0  0  0  0  0  0  0  0  0  0  0  0
    2.3410   -1.9902    1.4863 C   0  0  0  0  0  0  0  0  0  0  0  0
    2.9919   -3.3510    1.5840 C   0  0  0  0  0  0  0  0  0  0  0  0
    3.5017   -3.8211    2.8020 C   0  0  0  0  0  0  0  0  0  0  0  0
    4.0110   -5.1217    2.9129 C   0  0  0  0  0  0  0  0  0  0  0  0
    4.0172   -5.9767    1.8053 C   0  0  0  0  0  0  0  0  0  0  0  0
    4.5581   -7.3432    1.9168 C   0  0  0  0  0  0  0  0  0  0  0  0
    3.7341   -8.3462    2.2743 C   0  0  0  0  0  0  0  0  0  0  0  0
    4.1983   -9.6362    2.3887 N   0  0  0  0  0  0  0  0  0  0  0  0
    5.5004  -10.0080    2.1564 C   0  0  0  0  0  0  0  0  0  0  0  0
    5.8944  -11.1646    2.2652 O   0  0  0  0  0  0  0  0  0  0  0  0
    6.4204   -8.9131    1.7594 C   0  0  0  0  0  0  0  0  0  0  0  0
    5.9541   -7.6600    1.6521 C   0  0  0  0  0  0  0  0  0  0  0  0
    3.5189   -5.5106    0.5839 C   0  0  0  0  0  0  0  0  0  0  0  0
    3.0126   -4.2095    0.4743 C   0  0  0  0  0  0  0  0  0  0  0  0
    3.0891    0.8134   -0.8776 C   0  0  0  0  0  0  0  0  0  0  0  0
    4.4306    0.8034   -1.2222 C   0  0  0  0  0  0  0  0  0  0  0  0
    4.7024    1.9722   -1.9712 C   0  0  0  0  0  0  0  0  0  0  0  0
    3.5219    2.6741   -2.1020 C   0  0  0  0  0  0  0  0  0  0  0  0
    3.2459    3.9762   -2.7889 C   0  0  0  0  0  0  0  0  0  0  0  0
    3.3812    5.1642   -1.8633 C   0  0  0  0  0  0  0  0  0  0  0  0
    4.6282    5.7784   -1.6689 C   0  0  0  0  0  0  0  0  0  0  0  0
    4.7623    6.8504   -0.7841 C   0  0  0  0  0  0  0  0  0  0  0  0
    3.6529    7.3209   -0.0853 C   0  0  0  0  0  0  0  0  0  0  0  0
    2.4078    6.7242   -0.2750 C   0  0  0  0  0  0  0  0  0  0  0  0
    2.2717    5.6505   -1.1575 C   0  0  0  0  0  0  0  0  0  0  0  0
    2.5463    1.9445   -1.4615 N   0  0  0  0  0  0  0  0  0  0  0  0
    3.9956   -1.0335    0.5894 H   0  0  0  0  0  0  0  0  0  0  0  0
    1.2862   -2.1205    1.2213 H   0  0  0  0  0  0  0  0  0  0  0  0
    2.3705   -1.4789    2.4559 H   0  0  0  0  0  0  0  0  0  0  0  0
    3.4869   -3.1873    3.6884 H   0  0  0  0  0  0  0  0  0  0  0  0
    4.3901   -5.4675    3.8730 H   0  0  0  0  0  0  0  0  0  0  0  0
    2.6792   -8.1995    2.4880 H   0  0  0  0  0  0  0  0  0  0  0  0
    3.5695  -10.3818    2.6590 H   0  0  0  0  0  0  0  0  0  0  0  0
    7.4511   -9.1805    1.5684 H   0  0  0  0  0  0  0  0  0  0  0  0
    6.6144   -6.8494    1.3612 H   0  0  0  0  0  0  0  0  0  0  0  0
    3.5081   -6.1618   -0.2877 H   0  0  0  0  0  0  0  0  0  0  0  0
    2.6110   -3.8749   -0.4808 H   0  0  0  0  0  0  0  0  0  0  0  0
    5.1521    0.0440   -0.9584 H   0  0  0  0  0  0  0  0  0  0  0  0
    5.6624    2.2755   -2.3694 H   0  0  0  0  0  0  0  0  0  0  0  0
    2.2461    3.9687   -3.2414 H   0  0  0  0  0  0  0  0  0  0  0  0
    3.9432    4.0982   -3.6289 H   0  0  0  0  0  0  0  0  0  0  0  0
    5.5052    5.4187   -2.2024 H   0  0  0  0  0  0  0  0  0  0  0  0
    5.7343    7.3139   -0.6357 H   0  0  0  0  0  0  0  0  0  0  0  0
    3.7591    8.1496    0.6097 H   0  0  0  0  0  0  0  0  0  0  0  0
    1.5422    7.0919    0.2698 H   0  0  0  0  0  0  0  0  0  0  0  0
    1.2940    5.1935   -1.2880 H   0  0  0  0  0  0  0  0  0  0  0  0
    1.5665    2.1923   -1.3923 H   0  0  0  0  0  0  0  0  0  0  0  0
  1  2  2  0  0  0  0
  2  3  1  0  0  0  0
  2 18  1  0  0  0  0
  3  4  1  0  0  0  0
  3 30  1  0  0  0  0
  4  5  1  0  0  0  0
  4 31  1  0  0  0  0
  4 32  1  0  0  0  0
  5  6  2  0  0  0  0
  5 17  1  0  0  0  0
  6  7  1  0  0  0  0
  6 33  1  0  0  0  0
  7  8  2  0  0  0  0
  7 34  1  0  0  0  0
  8  9  1  0  0  0  0
  8 16  1  0  0  0  0
  9 10  2  0  0  0  0
  9 15  1  0  0  0  0
 10 11  1  0  0  0  0
 10 35  1  0  0  0  0
 11 12  1  0  0  0  0
 11 36  1  0  0  0  0
 12 13  2  0  0  0  0
 12 14  1  0  0  0  0
 14 15  2  0  0  0  0
 14 37  1  0  0  0  0
 15 38  1  0  0  0  0
 16 17  2  0  0  0  0
 16 39  1  0  0  0  0
 17 40  1  0  0  0  0
 18 19  2  0  0  0  0
 18 29  1  0  0  0  0
 19 20  1  0  0  0  0
 19 41  1  0  0  0  0
 20 21  2  0  0  0  0
 20 42  1  0  0  0  0
 21 22  1  0  0  0  0
 21 29  1  0  0  0  0
 22 23  1  0  0  0  0
 22 43  1  0  0  0  0
 22 44  1  0  0  0  0
 23 24  2  0  0  0  0
 23 28  1  0  0  0  0
 24 25  1  0  0  0  0
 24 45  1  0  0  0  0
 25 26  2  0  0  0  0
 25 46  1  0  0  0  0
 26 27  1  0  0  0  0
 26 47  1  0  0  0  0
 27 28  2  0  0  0  0
 27 48  1  0  0  0  0
 28 49  1  0  0  0  0
 29 50  1  0  0  0  0
M  END
$$$$
