
 OpenBabel01122422483D

 44 47  0  0  0  0  0  0  0  0999 V2000
    3.4056   -1.0085   -2.3427 O   0  0  0  0  0  0  0  0  0  0  0  0
    3.4674   -0.6891   -1.1666 C   0  0  0  0  0  0  0  0  0  0  0  0
    3.2133   -1.5572   -0.1153 N   0  0  0  0  0  0  0  0  0  0  0  0
    2.3618   -2.6367   -0.1593 C   0  0  0  0  0  0  0  0  0  0  0  0
    1.2334   -2.6869   -0.8983 C   0  0  0  0  0  0  0  0  0  0  0  0
    0.3514   -3.7628   -0.8181 N   0  0  0  0  0  0  0  0  0  0  0  0
   -0.9150   -3.7308   -1.5580 C   0  0  0  0  0  0  0  0  0  0  0  0
   -0.7534   -4.2289   -2.9740 C   0  0  0  0  0  0  0  0  0  0  0  0
   -0.8313   -5.6022   -3.2482 C   0  0  0  0  0  0  0  0  0  0  0  0
   -0.5150   -6.0885   -4.5159 C   0  0  0  0  0  0  0  0  0  0  0  0
   -0.1460   -5.2045   -5.5275 C   0  0  0  0  0  0  0  0  0  0  0  0
   -0.1268   -3.8324   -5.2832 C   0  0  0  0  0  0  0  0  0  0  0  0
   -0.4274   -3.3449   -4.0112 C   0  0  0  0  0  0  0  0  0  0  0  0
    0.6389   -4.8985   -0.0635 C   0  0  0  0  0  0  0  0  0  0  0  0
   -0.0710   -5.8969    0.0211 O   0  0  0  0  0  0  0  0  0  0  0  0
    1.8972   -4.8469    0.7272 C   0  0  0  0  0  0  0  0  0  0  0  0
    2.6600   -3.7455    0.7150 C   0  0  0  0  0  0  0  0  0  0  0  0
    3.7210    0.7554   -0.8029 C   0  0  0  0  0  0  0  0  0  0  0  0
    3.2442    1.1456    0.4576 C   0  0  0  0  0  0  0  0  0  0  0  0
    3.1003    2.4833    0.7239 C   0  0  0  0  0  0  0  0  0  0  0  0
    3.3844    3.4371   -0.1676 N   0  0  0  0  0  0  0  0  0  0  0  0
    3.8318    3.0754   -1.3786 C   0  0  0  0  0  0  0  0  0  0  0  0
    3.9324    4.1221   -2.2643 C   0  0  0  0  0  0  0  0  0  0  0  0
    4.3310    3.9454   -3.5796 C   0  0  0  0  0  0  0  0  0  0  0  0
    4.7266    2.6837   -3.9807 C   0  0  0  0  0  0  0  0  0  0  0  0
    5.1771    2.5195   -5.2313 F   0  0  0  0  0  0  0  0  0  0  0  0
    4.6294    1.5915   -3.1059 C   0  0  0  0  0  0  0  0  0  0  0  0
    4.0965    1.7464   -1.7795 C   0  0  0  0  0  0  0  0  0  0  0  0
    3.7391   -1.4309    0.7396 H   0  0  0  0  0  0  0  0  0  0  0  0
    0.9385   -1.8668   -1.5464 H   0  0  0  0  0  0  0  0  0  0  0  0
   -1.3159   -2.7083   -1.5485 H   0  0  0  0  0  0  0  0  0  0  0  0
   -1.6622   -4.3455   -1.0400 H   0  0  0  0  0  0  0  0  0  0  0  0
   -1.1026   -6.3036   -2.4605 H   0  0  0  0  0  0  0  0  0  0  0  0
   -0.5303   -7.1584   -4.7029 H   0  0  0  0  0  0  0  0  0  0  0  0
    0.1382   -5.5862   -6.5042 H   0  0  0  0  0  0  0  0  0  0  0  0
    0.1515   -3.1426   -6.0751 H   0  0  0  0  0  0  0  0  0  0  0  0
   -0.3714   -2.2748   -3.8276 H   0  0  0  0  0  0  0  0  0  0  0  0
    2.1409   -5.7271    1.3073 H   0  0  0  0  0  0  0  0  0  0  0  0
    3.5678   -3.7193    1.3128 H   0  0  0  0  0  0  0  0  0  0  0  0
    2.8659    0.4496    1.1978 H   0  0  0  0  0  0  0  0  0  0  0  0
    2.6559    2.8331    1.6503 H   0  0  0  0  0  0  0  0  0  0  0  0
    3.6291    5.1087   -1.9260 H   0  0  0  0  0  0  0  0  0  0  0  0
    4.3203    4.7833   -4.2713 H   0  0  0  0  0  0  0  0  0  0  0  0
    4.9526    0.6221   -3.4841 H   0  0  0  0  0  0  0  0  0  0  0  0
  1  2  2  0  0  0  0
  2  3  1  0  0  0  0
  2 18  1  0  0  0  0
  3  4  1  0  0  0  0
  3 29  1  0  0  0  0
  4  5  2  0  0  0  0
  4 17  1  0  0  0  0
  5  6  1  0  0  0  0
  5 30  1  0  0  0  0
  6  7  1  0  0  0  0
  6 14  1  0  0  0  0
  7  8  1  0  0  0  0
  7 31  1  0  0  0  0
  7 32  1  0  0  0  0
  8  9  2  0  0  0  0
  8 13  1  0  0  0  0
  9 10  1  0  0  0  0
  9 33  1  0  0  0  0
 10 11  2  0  0  0  0
 10 34  1  0  0  0  0
 11 12  1  0  0  0  0
 11 35  1  0  0  0  0
 12 13  2  0  0  0  0
 12 36  1  0  0  0  0
 13 37  1  0  0  0  0
 14 15  2  0  0  0  0
 14 16  1  0  0  0  0
 16 17  2  0  0  0  0
 16 38  1  0  0  0  0
 17 39  1  0  0  0  0
 18 19  2  0  0  0  0
 18 28  1  0  0  0  0
 19 20  1  0  0  0  0
 19 40  1  0  0  0  0
 20 21  2  0  0  0  0
 20 41  1  0  0  0  0
 21 22  1  0  0  0  0
 22 23  2  0  0  0  0
 22 28  1  0  0  0  0
 23 24  1  0  0  0  0
 23 42  1  0  0  0  0
 24 25  2  0  0  0  0
 24 43  1  0  0  0  0
 25 26  1  0  0  0  0
 25 27  1  0  0  0  0
 27 28  2  0  0  0  0
 27 44  1  0  0  0  0
M  END
$$$$
