
 OpenBabel01122422483D

 49 52  0  0  0  0  0  0  0  0999 V2000
    1.1763   -0.1845   -0.4341 C   0  0  0  0  0  0  0  0  0  0  0  0
    2.3905    0.1374    0.2233 O   0  0  0  0  0  0  0  0  0  0  0  0
    3.0971   -0.8913    0.7729 C   0  0  0  0  0  0  0  0  0  0  0  0
    2.6792   -2.2064    0.9444 C   0  0  0  0  0  0  0  0  0  0  0  0
    3.5097   -3.1197    1.6066 C   0  0  0  0  0  0  0  0  0  0  0  0
    4.7806   -2.7323    2.0439 C   0  0  0  0  0  0  0  0  0  0  0  0
    5.5086   -3.6117    2.8632 N   0  0  0  0  0  0  0  0  0  0  0  0
    5.3361   -3.8871    4.2074 C   0  0  0  0  0  0  0  0  0  0  0  0
    6.0754   -4.7345    4.7082 O   0  0  0  0  0  0  0  0  0  0  0  0
    4.2919   -3.1642    5.0323 C   0  0  0  0  0  0  0  0  0  0  0  0
    4.0070   -1.8710    4.7856 C   0  0  0  0  0  0  0  0  0  0  0  0
    3.0066   -1.1816    5.4059 N   0  0  0  0  0  0  0  0  0  0  0  0
    2.2397   -1.6922    6.4257 C   0  0  0  0  0  0  0  0  0  0  0  0
    1.3196   -1.0656    6.9142 O   0  0  0  0  0  0  0  0  0  0  0  0
    2.6370   -3.0243    6.9036 C   0  0  0  0  0  0  0  0  0  0  0  0
    2.0558   -3.5365    8.0641 C   0  0  0  0  0  0  0  0  0  0  0  0
    2.4906   -4.7641    8.5455 C   0  0  0  0  0  0  0  0  0  0  0  0
    3.4718   -5.4259    7.8258 C   0  0  0  0  0  0  0  0  0  0  0  0
    4.0323   -4.9562    6.6824 N   0  0  0  0  0  0  0  0  0  0  0  0
    3.6250   -3.7500    6.2279 C   0  0  0  0  0  0  0  0  0  0  0  0
    5.2596   -1.4438    1.7535 C   0  0  0  0  0  0  0  0  0  0  0  0
    6.5400   -1.1084    2.1380 O   0  0  0  0  0  0  0  0  0  0  0  0
    7.0198    0.0916    1.5099 C   0  0  0  0  0  0  0  0  0  0  0  0
    8.5130    0.2394    1.5442 C   0  0  0  0  0  0  0  0  0  0  0  0
    9.1616    0.7835    0.4248 C   0  0  0  0  0  0  0  0  0  0  0  0
   10.5311    1.0325    0.4443 C   0  0  0  0  0  0  0  0  0  0  0  0
   11.2643    0.7463    1.5910 C   0  0  0  0  0  0  0  0  0  0  0  0
   10.6348    0.2111    2.7136 C   0  0  0  0  0  0  0  0  0  0  0  0
    9.2614   -0.0422    2.6963 C   0  0  0  0  0  0  0  0  0  0  0  0
    4.3694   -0.5170    1.1974 C   0  0  0  0  0  0  0  0  0  0  0  0
    0.8635    0.7034   -0.9935 H   0  0  0  0  0  0  0  0  0  0  0  0
    0.3973   -0.4195    0.2960 H   0  0  0  0  0  0  0  0  0  0  0  0
    1.3106   -0.9978   -1.1531 H   0  0  0  0  0  0  0  0  0  0  0  0
    1.7031   -2.5424    0.6112 H   0  0  0  0  0  0  0  0  0  0  0  0
    3.1603   -4.1350    1.7809 H   0  0  0  0  0  0  0  0  0  0  0  0
    6.3324   -4.0446    2.4620 H   0  0  0  0  0  0  0  0  0  0  0  0
    4.5235   -1.2790    4.0534 H   0  0  0  0  0  0  0  0  0  0  0  0
    2.7591   -0.2519    5.0911 H   0  0  0  0  0  0  0  0  0  0  0  0
    1.2973   -2.9697    8.5988 H   0  0  0  0  0  0  0  0  0  0  0  0
    2.0805   -5.1818    9.4544 H   0  0  0  0  0  0  0  0  0  0  0  0
    3.8587   -6.3840    8.1690 H   0  0  0  0  0  0  0  0  0  0  0  0
    6.5904    0.9666    2.0141 H   0  0  0  0  0  0  0  0  0  0  0  0
    6.7234    0.0896    0.4534 H   0  0  0  0  0  0  0  0  0  0  0  0
    8.5968    1.0312   -0.4728 H   0  0  0  0  0  0  0  0  0  0  0  0
   11.0170    1.4552   -0.4289 H   0  0  0  0  0  0  0  0  0  0  0  0
   12.3332    0.9474    1.6117 H   0  0  0  0  0  0  0  0  0  0  0  0
   11.2077   -0.0043    3.6082 H   0  0  0  0  0  0  0  0  0  0  0  0
    8.7699   -0.4455    3.5849 H   0  0  0  0  0  0  0  0  0  0  0  0
    4.6241    0.5339    1.0960 H   0  0  0  0  0  0  0  0  0  0  0  0
  1  2  1  0  0  0  0
  1 31  1  0  0  0  0
  1 32  1  0  0  0  0
  1 33  1  0  0  0  0
  2  3  1  0  0  0  0
  3  4  2  0  0  0  0
  3 30  1  0  0  0  0
  4  5  1  0  0  0  0
  4 34  1  0  0  0  0
  5  6  2  0  0  0  0
  5 35  1  0  0  0  0
  6  7  1  0  0  0  0
  6 21  1  0  0  0  0
  7  8  1  0  0  0  0
  7 36  1  0  0  0  0
  8  9  2  0  0  0  0
  8 10  1  0  0  0  0
 10 11  2  0  0  0  0
 10 20  1  0  0  0  0
 11 12  1  0  0  0  0
 11 37  1  0  0  0  0
 12 13  1  0  0  0  0
 12 38  1  0  0  0  0
 13 14  2  0  0  0  0
 13 15  1  0  0  0  0
 15 16  2  0  0  0  0
 15 20  1  0  0  0  0
 16 17  1  0  0  0  0
 16 39  1  0  0  0  0
 17 18  2  0  0  0  0
 17 40  1  0  0  0  0
 18 19  1  0  0  0  0
 18 41  1  0  0  0  0
 19 20  2  0  0  0  0
 21 22  1  0  0  0  0
 21 30  2  0  0  0  0
 22 23  1  0  0  0  0
 23 24  1  0  0  0  0
 23 42  1  0  0  0  0
 23 43  1  0  0  0  0
 24 25  2  0  0  0  0
 24 29  1  0  0  0  0
 25 26  1  0  0  0  0
 25 44  1  0  0  0  0
 26 27  2  0  0  0  0
 26 45  1  0  0  0  0
 27 28  1  0  0  0  0
 27 46  1  0  0  0  0
 28 29  2  0  0  0  0
 28 47  1  0  0  0  0
 29 48  1  0  0  0  0
 30 49  1  0  0  0  0
M  END
$$$$
