
 OpenBabel01122422483D

 49 52  0  0  0  0  0  0  0  0999 V2000
    1.9317   -1.1650    0.5365 C   0  0  0  0  0  0  0  0  0  0  0  0
    3.3215   -0.8597    0.4930 O   0  0  0  0  0  0  0  0  0  0  0  0
    3.6913    0.2828    1.1491 C   0  0  0  0  0  0  0  0  0  0  0  0
    4.8164    0.9288    0.6410 C   0  0  0  0  0  0  0  0  0  0  0  0
    5.2802    2.1156    1.2159 C   0  0  0  0  0  0  0  0  0  0  0  0
    4.6269    2.6750    2.3288 C   0  0  0  0  0  0  0  0  0  0  0  0
    5.0287    3.9563    2.9617 C   0  0  0  0  0  0  0  0  0  0  0  0
    6.0155    4.9025    2.3387 C   0  0  0  0  0  0  0  0  0  0  0  0
    6.1694    4.9543    1.1221 O   0  0  0  0  0  0  0  0  0  0  0  0
    6.7192    5.6989    3.2084 N   0  0  0  0  0  0  0  0  0  0  0  0
    7.6701    6.6789    2.7370 C   0  0  0  0  0  0  0  0  0  0  0  0
    9.0875    6.1712    2.7487 C   0  0  0  0  0  0  0  0  0  0  0  0
    9.7394    5.9593    1.5200 C   0  0  0  0  0  0  0  0  0  0  0  0
   11.0887    5.6073    1.4742 C   0  0  0  0  0  0  0  0  0  0  0  0
   11.7990    5.4277    2.6551 C   0  0  0  0  0  0  0  0  0  0  0  0
   11.1524    5.5707    3.8816 C   0  0  0  0  0  0  0  0  0  0  0  0
    9.8067    5.9641    3.9402 C   0  0  0  0  0  0  0  0  0  0  0  0
    9.1422    6.0908    5.1455 O   0  0  0  0  0  0  0  0  0  0  0  0
    9.8471    6.6705    6.1936 C   0  0  0  0  0  0  0  0  0  0  0  0
    9.6182    6.1804    7.4704 C   0  0  0  0  0  0  0  0  0  0  0  0
   10.3260    6.7530    8.5285 C   0  0  0  0  0  0  0  0  0  0  0  0
   11.2239    7.7850    8.2711 C   0  0  0  0  0  0  0  0  0  0  0  0
   11.3731    8.2133    6.9632 C   0  0  0  0  0  0  0  0  0  0  0  0
   10.6920    7.6939    5.9233 N   0  0  0  0  0  0  0  0  0  0  0  0
    4.3663    4.3752    4.0557 C   0  0  0  0  0  0  0  0  0  0  0  0
    3.2766    3.5863    4.6667 C   0  0  0  0  0  0  0  0  0  0  0  0
    2.7343    3.9654    5.7015 O   0  0  0  0  0  0  0  0  0  0  0  0
    2.9004    2.4485    4.0167 N   0  0  0  0  0  0  0  0  0  0  0  0
    3.5313    1.9745    2.8639 C   0  0  0  0  0  0  0  0  0  0  0  0
    3.0635    0.7902    2.2856 C   0  0  0  0  0  0  0  0  0  0  0  0
    1.7439   -1.9759   -0.1751 H   0  0  0  0  0  0  0  0  0  0  0  0
    1.3258   -0.3043    0.2311 H   0  0  0  0  0  0  0  0  0  0  0  0
    1.6365   -1.5205    1.5281 H   0  0  0  0  0  0  0  0  0  0  0  0
    5.3282    0.5192   -0.2233 H   0  0  0  0  0  0  0  0  0  0  0  0
    6.1486    2.5945    0.7769 H   0  0  0  0  0  0  0  0  0  0  0  0
    6.6815    5.5483    4.2054 H   0  0  0  0  0  0  0  0  0  0  0  0
    7.5886    7.5667    3.3745 H   0  0  0  0  0  0  0  0  0  0  0  0
    7.3881    7.0015    1.7266 H   0  0  0  0  0  0  0  0  0  0  0  0
    9.1963    6.0875    0.5849 H   0  0  0  0  0  0  0  0  0  0  0  0
   11.5848    5.4827    0.5155 H   0  0  0  0  0  0  0  0  0  0  0  0
   12.8560    5.1784    2.6265 H   0  0  0  0  0  0  0  0  0  0  0  0
   11.7204    5.4023    4.7925 H   0  0  0  0  0  0  0  0  0  0  0  0
    8.9296    5.3639    7.6428 H   0  0  0  0  0  0  0  0  0  0  0  0
   10.1827    6.3951    9.5446 H   0  0  0  0  0  0  0  0  0  0  0  0
   11.7936    8.2468    9.0699 H   0  0  0  0  0  0  0  0  0  0  0  0
   12.0685    9.0068    6.7059 H   0  0  0  0  0  0  0  0  0  0  0  0
    4.5376    5.3276    4.5380 H   0  0  0  0  0  0  0  0  0  0  0  0
    2.1405    1.9357    4.4321 H   0  0  0  0  0  0  0  0  0  0  0  0
    2.2153    0.2781    2.7269 H   0  0  0  0  0  0  0  0  0  0  0  0
  1  2  1  0  0  0  0
  1 31  1  0  0  0  0
  1 32  1  0  0  0  0
  1 33  1  0  0  0  0
  2  3  1  0  0  0  0
  3  4  2  0  0  0  0
  3 30  1  0  0  0  0
  4  5  1  0  0  0  0
  4 34  1  0  0  0  0
  5  6  2  0  0  0  0
  5 35  1  0  0  0  0
  6  7  1  0  0  0  0
  6 29  1  0  0  0  0
  7  8  1  0  0  0  0
  7 25  2  0  0  0  0
  8  9  2  0  0  0  0
  8 10  1  0  0  0  0
 10 11  1  0  0  0  0
 10 36  1  0  0  0  0
 11 12  1  0  0  0  0
 11 37  1  0  0  0  0
 11 38  1  0  0  0  0
 12 13  2  0  0  0  0
 12 17  1  0  0  0  0
 13 14  1  0  0  0  0
 13 39  1  0  0  0  0
 14 15  2  0  0  0  0
 14 40  1  0  0  0  0
 15 16  1  0  0  0  0
 15 41  1  0  0  0  0
 16 17  2  0  0  0  0
 16 42  1  0  0  0  0
 17 18  1  0  0  0  0
 18 19  1  0  0  0  0
 19 20  2  0  0  0  0
 19 24  1  0  0  0  0
 20 21  1  0  0  0  0
 20 43  1  0  0  0  0
 21 22  2  0  0  0  0
 21 44  1  0  0  0  0
 22 23  1  0  0  0  0
 22 45  1  0  0  0  0
 23 24  2  0  0  0  0
 23 46  1  0  0  0  0
 25 26  1  0  0  0  0
 25 47  1  0  0  0  0
 26 27  2  0  0  0  0
 26 28  1  0  0  0  0
 28 29  1  0  0  0  0
 28 48  1  0  0  0  0
 29 30  2  0  0  0  0
 30 49  1  0  0  0  0
M  END
$$$$
