
 OpenBabel01122422483D

 41 44  0  0  0  0  0  0  0  0999 V2000
    1.0418   -0.1174   -0.4185 O   0  0  0  0  0  0  0  0  0  0  0  0
    2.2476   -0.1140   -0.1886 C   0  0  0  0  0  0  0  0  0  0  0  0
    2.9232   -0.9111    0.6987 N   0  0  0  0  0  0  0  0  0  0  0  0
    2.2911   -1.8594    1.4552 C   0  0  0  0  0  0  0  0  0  0  0  0
    1.0612   -2.3279    1.2744 N   0  0  0  0  0  0  0  0  0  0  0  0
    0.8752   -3.1199    2.3396 N   0  0  0  0  0  0  0  0  0  0  0  0
   -0.3664   -3.7597    2.5796 C   0  0  0  0  0  0  0  0  0  0  0  0
   -1.4012   -3.6448    1.6352 C   0  0  0  0  0  0  0  0  0  0  0  0
   -2.6157   -4.2871    1.8644 C   0  0  0  0  0  0  0  0  0  0  0  0
   -3.5939   -4.1963    0.9549 F   0  0  0  0  0  0  0  0  0  0  0  0
   -2.8291   -5.0263    3.0196 C   0  0  0  0  0  0  0  0  0  0  0  0
   -1.8075   -5.1184    3.9528 C   0  0  0  0  0  0  0  0  0  0  0  0
   -2.0020   -5.8146    5.0785 F   0  0  0  0  0  0  0  0  0  0  0  0
   -0.5764   -4.4974    3.7482 C   0  0  0  0  0  0  0  0  0  0  0  0
    2.0356   -3.1570    3.0748 C   0  0  0  0  0  0  0  0  0  0  0  0
    2.9513   -2.3915    2.5231 N   0  0  0  0  0  0  0  0  0  0  0  0
    3.0555    0.9024   -0.8948 C   0  0  0  0  0  0  0  0  0  0  0  0
    2.4650    2.1478   -1.1150 C   0  0  0  0  0  0  0  0  0  0  0  0
    3.1106    3.1005   -1.8996 C   0  0  0  0  0  0  0  0  0  0  0  0
    4.3622    2.8408   -2.4865 C   0  0  0  0  0  0  0  0  0  0  0  0
    4.9832    3.8343   -3.3897 C   0  0  0  0  0  0  0  0  0  0  0  0
    4.7925    5.2154   -3.2248 C   0  0  0  0  0  0  0  0  0  0  0  0
    5.3262    6.1266   -4.1348 C   0  0  0  0  0  0  0  0  0  0  0  0
    6.0669    5.6366   -5.1931 C   0  0  0  0  0  0  0  0  0  0  0  0
    6.3009    4.3248   -5.3928 N   0  0  0  0  0  0  0  0  0  0  0  0
    5.7510    3.4649   -4.4978 C   0  0  0  0  0  0  0  0  0  0  0  0
    4.9559    1.5892   -2.2181 C   0  0  0  0  0  0  0  0  0  0  0  0
    4.3111    0.6240   -1.4322 C   0  0  0  0  0  0  0  0  0  0  0  0
    3.8715   -0.7144    0.9734 H   0  0  0  0  0  0  0  0  0  0  0  0
   -1.2820   -3.0697    0.7180 H   0  0  0  0  0  0  0  0  0  0  0  0
   -3.7775   -5.5227    3.1895 H   0  0  0  0  0  0  0  0  0  0  0  0
    0.1744   -4.6045    4.5232 H   0  0  0  0  0  0  0  0  0  0  0  0
    2.1569   -3.7362    3.9772 H   0  0  0  0  0  0  0  0  0  0  0  0
    1.4781    2.3655   -0.7081 H   0  0  0  0  0  0  0  0  0  0  0  0
    2.5867    4.0358   -2.0849 H   0  0  0  0  0  0  0  0  0  0  0  0
    4.2181    5.6029   -2.3869 H   0  0  0  0  0  0  0  0  0  0  0  0
    5.1600    7.1915   -4.0187 H   0  0  0  0  0  0  0  0  0  0  0  0
    6.5003    6.3048   -5.9310 H   0  0  0  0  0  0  0  0  0  0  0  0
    5.9406    2.4206   -4.7324 H   0  0  0  0  0  0  0  0  0  0  0  0
    5.9256    1.3360   -2.6441 H   0  0  0  0  0  0  0  0  0  0  0  0
    4.7733   -0.3536   -1.3038 H   0  0  0  0  0  0  0  0  0  0  0  0
  1  2  2  0  0  0  0
  2  3  1  0  0  0  0
  2 17  1  0  0  0  0
  3  4  1  0  0  0  0
  3 29  1  0  0  0  0
  4  5  2  0  0  0  0
  4 16  1  0  0  0  0
  5  6  1  0  0  0  0
  6  7  1  0  0  0  0
  6 15  1  0  0  0  0
  7  8  2  0  0  0  0
  7 14  1  0  0  0  0
  8  9  1  0  0  0  0
  8 30  1  0  0  0  0
  9 10  1  0  0  0  0
  9 11  2  0  0  0  0
 11 12  1  0  0  0  0
 11 31  1  0  0  0  0
 12 13  1  0  0  0  0
 12 14  2  0  0  0  0
 14 32  1  0  0  0  0
 15 16  2  0  0  0  0
 15 33  1  0  0  0  0
 17 18  2  0  0  0  0
 17 28  1  0  0  0  0
 18 19  1  0  0  0  0
 18 34  1  0  0  0  0
 19 20  2  0  0  0  0
 19 35  1  0  0  0  0
 20 21  1  0  0  0  0
 20 27  1  0  0  0  0
 21 22  2  0  0  0  0
 21 26  1  0  0  0  0
 22 23  1  0  0  0  0
 22 36  1  0  0  0  0
 23 24  2  0  0  0  0
 23 37  1  0  0  0  0
 24 25  1  0  0  0  0
 24 38  1  0  0  0  0
 25 26  2  0  0  0  0
 26 39  1  0  0  0  0
 27 28  2  0  0  0  0
 27 40  1  0  0  0  0
 28 41  1  0  0  0  0
M  END
$$$$
