
 OpenBabel01122422483D

 47 50  0  0  1  0  0  0  0  0999 V2000
    1.0029    0.1671   -0.2733 O   0  0  0  0  0  0  0  0  0  0  0  0
    2.2091   -0.0512   -0.1417 C   0  0  0  0  0  0  0  0  0  0  0  0
    2.8711   -0.9527   -1.0079 N   0  0  0  0  0  0  0  0  0  0  0  0
    2.0811   -2.1216   -1.6309 S   0  0  3  0  0  0  0  0  0  0  0  0
    1.1920   -2.9919   -0.8826 O   0  0  0  0  0  0  0  0  0  0  0  0
    1.1508   -1.4383   -2.9949 C   0  0  0  0  0  0  0  0  0  0  0  0
    1.8311   -0.7882   -4.0299 C   0  0  0  0  0  0  0  0  0  0  0  0
    1.1185   -0.3383   -5.1413 C   0  0  0  0  0  0  0  0  0  0  0  0
   -0.2608   -0.5387   -5.2163 C   0  0  0  0  0  0  0  0  0  0  0  0
   -0.9377   -1.1655   -4.1676 C   0  0  0  0  0  0  0  0  0  0  0  0
   -0.2355   -1.6107   -3.0484 C   0  0  0  0  0  0  0  0  0  0  0  0
    3.2689   -3.2259   -2.3767 C   0  0  0  0  0  0  0  0  0  0  0  0
    4.6303   -2.9543   -2.3015 C   0  0  0  0  0  0  0  0  0  0  0  0
    5.4950   -3.8690   -2.8726 C   0  0  0  0  0  0  0  0  0  0  0  0
    5.0891   -4.9968   -3.4942 N   0  0  0  0  0  0  0  0  0  0  0  0
    3.7589   -5.2315   -3.5449 C   0  0  0  0  0  0  0  0  0  0  0  0
    2.8093   -4.3835   -3.0075 C   0  0  0  0  0  0  0  0  0  0  0  0
    3.0499    0.7239    0.8837 C   0  0  3  0  0  0  0  0  0  0  0  0
    3.0298    2.2345    0.6441 C   0  0  0  0  0  0  0  0  0  0  0  0
    1.8217    2.9544    0.6230 C   0  0  0  0  0  0  0  0  0  0  0  0
    1.8150    4.3354    0.4382 C   0  0  0  0  0  0  0  0  0  0  0  0
    3.0140    5.0236    0.2801 C   0  0  0  0  0  0  0  0  0  0  0  0
    4.2212    4.3289    0.2977 C   0  0  0  0  0  0  0  0  0  0  0  0
    4.2317    2.9425    0.4767 C   0  0  0  0  0  0  0  0  0  0  0  0
    2.6636    0.4260    2.2712 N   0  0  0  0  0  0  0  0  0  0  0  0
    1.4245    0.1189    2.7727 C   0  0  0  0  0  0  0  0  0  0  0  0
    1.5621    0.0387    4.1375 C   0  0  0  0  0  0  0  0  0  0  0  0
    2.9200    0.3054    4.3774 C   0  0  0  0  0  0  0  0  0  0  0  0
    3.6036    0.5150    3.2501 N   0  0  0  0  0  0  0  0  0  0  0  0
    2.9057   -0.6314   -3.9816 H   0  0  0  0  0  0  0  0  0  0  0  0
    1.6382    0.1618   -5.9553 H   0  0  0  0  0  0  0  0  0  0  0  0
   -0.8105   -0.2038   -6.0929 H   0  0  0  0  0  0  0  0  0  0  0  0
   -2.0151   -1.3122   -4.2291 H   0  0  0  0  0  0  0  0  0  0  0  0
   -0.7704   -2.0944   -2.2339 H   0  0  0  0  0  0  0  0  0  0  0  0
    5.0196   -2.0679   -1.8145 H   0  0  0  0  0  0  0  0  0  0  0  0
    6.5711   -3.7176   -2.8417 H   0  0  0  0  0  0  0  0  0  0  0  0
    3.4724   -6.1543   -4.0423 H   0  0  0  0  0  0  0  0  0  0  0  0
    1.7552   -4.6257   -3.0694 H   0  0  0  0  0  0  0  0  0  0  0  0
    4.0840    0.3596    0.7933 H   0  0  0  0  0  0  0  0  0  0  0  0
    0.8661    2.4503    0.7599 H   0  0  0  0  0  0  0  0  0  0  0  0
    0.8705    4.8739    0.4278 H   0  0  0  0  0  0  0  0  0  0  0  0
    3.0065    6.1028    0.1524 H   0  0  0  0  0  0  0  0  0  0  0  0
    5.1574    4.8700    0.1833 H   0  0  0  0  0  0  0  0  0  0  0  0
    5.1898    2.4273    0.5041 H   0  0  0  0  0  0  0  0  0  0  0  0
    0.5541    0.0041    2.1449 H   0  0  0  0  0  0  0  0  0  0  0  0
    0.7844   -0.1710    4.8581 H   0  0  0  0  0  0  0  0  0  0  0  0
    3.4368    0.3531    5.3260 H   0  0  0  0  0  0  0  0  0  0  0  0
  1  2  2  0  0  0  0
  2  3  1  0  0  0  0
  2 18  1  0  0  0  0
  3  4  2  0  0  0  0
  4  5  2  0  0  0  0
  4  6  1  0  0  0  0
  4 12  1  0  0  0  0
  6  7  2  0  0  0  0
  6 11  1  0  0  0  0
  7  8  1  0  0  0  0
  7 30  1  0  0  0  0
  8  9  2  0  0  0  0
  8 31  1  0  0  0  0
  9 10  1  0  0  0  0
  9 32  1  0  0  0  0
 10 11  2  0  0  0  0
 10 33  1  0  0  0  0
 11 34  1  0  0  0  0
 12 13  2  0  0  0  0
 12 17  1  0  0  0  0
 13 14  1  0  0  0  0
 13 35  1  0  0  0  0
 14 15  2  0  0  0  0
 14 36  1  0  0  0  0
 15 16  1  0  0  0  0
 16 17  2  0  0  0  0
 16 37  1  0  0  0  0
 17 38  1  0  0  0  0
 18 19  1  0  0  0  0
 18 25  1  0  0  0  0
 18 39  1  0  0  0  0
 19 20  2  0  0  0  0
 19 24  1  0  0  0  0
 20 21  1  0  0  0  0
 20 40  1  0  0  0  0
 21 22  2  0  0  0  0
 21 41  1  0  0  0  0
 22 23  1  0  0  0  0
 22 42  1  0  0  0  0
 23 24  2  0  0  0  0
 23 43  1  0  0  0  0
 24 44  1  0  0  0  0
 25 26  1  0  0  0  0
 25 29  1  0  0  0  0
 26 27  2  0  0  0  0
 26 45  1  0  0  0  0
 27 28  1  0  0  0  0
 27 46  1  0  0  0  0
 28 29  2  0  0  0  0
 28 47  1  0  0  0  0
M  END
$$$$
