
 OpenBabel01122422483D

 45 48  0  0  0  0  0  0  0  0999 V2000
    1.0232   -0.4159   -0.3411 O   0  0  0  0  0  0  0  0  0  0  0  0
    2.1925   -0.1660   -0.0826 C   0  0  0  0  0  0  0  0  0  0  0  0
    2.8641   -0.6045    1.0441 N   0  0  0  0  0  0  0  0  0  0  0  0
    2.2488   -1.3713    2.0110 C   0  0  0  0  0  0  0  0  0  0  0  0
    2.3989   -1.1825    3.3668 C   0  0  0  0  0  0  0  0  0  0  0  0
    3.2267   -0.1985    4.0832 C   0  0  0  0  0  0  0  0  0  0  0  0
    4.0072   -0.7897    5.0202 F   0  0  0  0  0  0  0  0  0  0  0  0
    4.0826    0.4269    3.2229 F   0  0  0  0  0  0  0  0  0  0  0  0
    1.5715   -2.1065    3.9805 N   0  0  0  0  0  0  0  0  0  0  0  0
    1.1447   -2.2113    5.3335 C   0  0  0  0  0  0  0  0  0  0  0  0
    1.0021   -1.0909    6.1518 C   0  0  0  0  0  0  0  0  0  0  0  0
    0.5422   -1.2795    7.4460 C   0  0  0  0  0  0  0  0  0  0  0  0
    0.2284   -2.4827    7.9652 N   0  0  0  0  0  0  0  0  0  0  0  0
    0.3513   -3.5491    7.1472 C   0  0  0  0  0  0  0  0  0  0  0  0
    0.7849   -3.4665    5.8351 C   0  0  0  0  0  0  0  0  0  0  0  0
    1.0689   -2.9893    3.0737 N   0  0  0  0  0  0  0  0  0  0  0  0
    1.3865   -2.4710    1.8867 C   0  0  0  0  0  0  0  0  0  0  0  0
    2.9894    0.7473   -0.9101 C   0  0  0  0  0  0  0  0  0  0  0  0
    4.3265    0.8347   -0.7960 N   0  0  0  0  0  0  0  0  0  0  0  0
    4.7307    1.7432   -1.7606 O   0  0  0  0  0  0  0  0  0  0  0  0
    3.6416    2.2200   -2.4213 C   0  0  0  0  0  0  0  0  0  0  0  0
    3.8864    3.1896   -3.5120 C   0  0  0  0  0  0  0  0  0  0  0  0
    3.9166    4.4824   -2.9159 O   0  0  0  0  0  0  0  0  0  0  0  0
    4.0828    5.5491   -3.7574 C   0  0  0  0  0  0  0  0  0  0  0  0
    4.1582    6.7880   -3.1126 C   0  0  0  0  0  0  0  0  0  0  0  0
    4.3161    7.9674   -3.8464 C   0  0  0  0  0  0  0  0  0  0  0  0
    4.3977    7.9201   -5.2366 C   0  0  0  0  0  0  0  0  0  0  0  0
    4.3251    6.6924   -5.8900 C   0  0  0  0  0  0  0  0  0  0  0  0
    4.1723    5.5177   -5.1521 C   0  0  0  0  0  0  0  0  0  0  0  0
    4.1071    4.3644   -5.8320 F   0  0  0  0  0  0  0  0  0  0  0  0
    2.5114    1.6386   -1.9031 C   0  0  0  0  0  0  0  0  0  0  0  0
    3.7046   -0.0861    1.2949 H   0  0  0  0  0  0  0  0  0  0  0  0
    2.6363    0.5900    4.5517 H   0  0  0  0  0  0  0  0  0  0  0  0
    1.1488   -0.0765    5.8128 H   0  0  0  0  0  0  0  0  0  0  0  0
    0.3905   -0.4352    8.1134 H   0  0  0  0  0  0  0  0  0  0  0  0
    0.0813   -4.5041    7.5889 H   0  0  0  0  0  0  0  0  0  0  0  0
    0.8568   -4.3679    5.2338 H   0  0  0  0  0  0  0  0  0  0  0  0
    1.0300   -2.9568    0.9861 H   0  0  0  0  0  0  0  0  0  0  0  0
    3.0622    3.1158   -4.2324 H   0  0  0  0  0  0  0  0  0  0  0  0
    4.8446    2.9677   -4.0042 H   0  0  0  0  0  0  0  0  0  0  0  0
    4.0940    6.8358   -2.0276 H   0  0  0  0  0  0  0  0  0  0  0  0
    4.3743    8.9231   -3.3298 H   0  0  0  0  0  0  0  0  0  0  0  0
    4.5182    8.8369   -5.8092 H   0  0  0  0  0  0  0  0  0  0  0  0
    4.3838    6.6381   -6.9724 H   0  0  0  0  0  0  0  0  0  0  0  0
    1.4869    1.8105   -2.1980 H   0  0  0  0  0  0  0  0  0  0  0  0
  1  2  2  0  0  0  0
  2  3  1  0  0  0  0
  2 18  1  0  0  0  0
  3  4  1  0  0  0  0
  3 32  1  0  0  0  0
  4  5  2  0  0  0  0
  4 17  1  0  0  0  0
  5  6  1  0  0  0  0
  5  9  1  0  0  0  0
  6  7  1  0  0  0  0
  6  8  1  0  0  0  0
  6 33  1  0  0  0  0
  9 10  1  0  0  0  0
  9 16  1  0  0  0  0
 10 11  2  0  0  0  0
 10 15  1  0  0  0  0
 11 12  1  0  0  0  0
 11 34  1  0  0  0  0
 12 13  2  0  0  0  0
 12 35  1  0  0  0  0
 13 14  1  0  0  0  0
 14 15  2  0  0  0  0
 14 36  1  0  0  0  0
 15 37  1  0  0  0  0
 16 17  2  0  0  0  0
 17 38  1  0  0  0  0
 18 19  2  0  0  0  0
 18 31  1  0  0  0  0
 19 20  1  0  0  0  0
 20 21  1  0  0  0  0
 21 22  1  0  0  0  0
 21 31  2  0  0  0  0
 22 23  1  0  0  0  0
 22 39  1  0  0  0  0
 22 40  1  0  0  0  0
 23 24  1  0  0  0  0
 24 25  2  0  0  0  0
 24 29  1  0  0  0  0
 25 26  1  0  0  0  0
 25 41  1  0  0  0  0
 26 27  2  0  0  0  0
 26 42  1  0  0  0  0
 27 28  1  0  0  0  0
 27 43  1  0  0  0  0
 28 29  2  0  0  0  0
 28 44  1  0  0  0  0
 29 30  1  0  0  0  0
 31 45  1  0  0  0  0
M  END
$$$$
