
 OpenBabel01122422483D

 42 45  0  0  0  0  0  0  0  0999 V2000
   -3.1137    0.2102   -0.1742 N   0  0  0  0  0  0  0  0  0  0  0  0
   -1.9542    0.1424   -0.1014 C   0  0  0  0  0  0  0  0  0  0  0  0
   -0.5236    0.0565   -0.0067 C   0  0  0  0  0  0  0  0  0  0  0  0
    0.1093   -1.1951   -0.0064 C   0  0  0  0  0  0  0  0  0  0  0  0
    1.5049   -1.3023    0.1039 C   0  0  0  0  0  0  0  0  0  0  0  0
    2.2275   -2.5944    0.0913 C   0  0  0  0  0  0  0  0  0  0  0  0
    3.5172   -2.6946   -0.4743 C   0  0  0  0  0  0  0  0  0  0  0  0
    4.2508   -3.8814   -0.4287 C   0  0  0  0  0  0  0  0  0  0  0  0
    3.6995   -5.0095    0.1646 C   0  0  0  0  0  0  0  0  0  0  0  0
    2.4186   -4.9478    0.7074 C   0  0  0  0  0  0  0  0  0  0  0  0
    1.6919   -3.7521    0.6744 C   0  0  0  0  0  0  0  0  0  0  0  0
    2.2325   -0.1089    0.2293 C   0  0  0  0  0  0  0  0  0  0  0  0
    1.6364    1.1487    0.1727 C   0  0  0  0  0  0  0  0  0  0  0  0
    2.4003    2.3317    0.1471 N   0  0  0  0  0  0  0  0  0  0  0  0
    3.7649    2.4070   -0.1150 C   0  0  0  0  0  0  0  0  0  0  0  0
    4.5839    1.5051   -0.1901 O   0  0  0  0  0  0  0  0  0  0  0  0
    4.1728    3.7691   -0.6189 C   0  0  0  0  0  0  0  0  0  0  0  0
    3.2634    4.7174   -0.5514 N   0  0  0  0  0  0  0  0  0  0  0  0
    3.3362    5.6682   -1.5664 N   0  0  0  0  0  0  0  0  0  0  0  0
    3.6814    5.0637   -2.8213 C   0  0  0  0  0  0  0  0  0  0  0  0
    2.7774    4.9936   -3.8708 C   0  0  0  0  0  0  0  0  0  0  0  0
    3.0968    4.2266   -4.9981 C   0  0  0  0  0  0  0  0  0  0  0  0
    4.3288    3.5600   -5.0952 C   0  0  0  0  0  0  0  0  0  0  0  0
    5.2265    3.5850   -4.0313 C   0  0  0  0  0  0  0  0  0  0  0  0
    4.8533    4.2941   -2.8968 C   0  0  0  0  0  0  0  0  0  0  0  0
    5.3519    3.9321   -1.5698 C   0  0  0  0  0  0  0  0  0  0  0  0
    6.5135    3.7673   -1.2614 O   0  0  0  0  0  0  0  0  0  0  0  0
    0.2453    1.2319    0.0789 C   0  0  0  0  0  0  0  0  0  0  0  0
   -0.4986   -2.0932   -0.1047 H   0  0  0  0  0  0  0  0  0  0  0  0
    3.9824   -1.8348   -0.9554 H   0  0  0  0  0  0  0  0  0  0  0  0
    5.2524   -3.9140   -0.8500 H   0  0  0  0  0  0  0  0  0  0  0  0
    4.2693   -5.9335    0.2072 H   0  0  0  0  0  0  0  0  0  0  0  0
    1.9865   -5.8296    1.1734 H   0  0  0  0  0  0  0  0  0  0  0  0
    0.7087   -3.7357    1.1384 H   0  0  0  0  0  0  0  0  0  0  0  0
    3.3064   -0.1849    0.3783 H   0  0  0  0  0  0  0  0  0  0  0  0
    1.9054    3.2193    0.0622 H   0  0  0  0  0  0  0  0  0  0  0  0
    4.0524    6.3765   -1.3489 H   0  0  0  0  0  0  0  0  0  0  0  0
    1.7997    5.4587   -3.7801 H   0  0  0  0  0  0  0  0  0  0  0  0
    2.3624    4.1139   -5.7931 H   0  0  0  0  0  0  0  0  0  0  0  0
    4.5487    2.9569   -5.9738 H   0  0  0  0  0  0  0  0  0  0  0  0
    6.1259    2.9748   -4.0416 H   0  0  0  0  0  0  0  0  0  0  0  0
   -0.2517    2.1994    0.0453 H   0  0  0  0  0  0  0  0  0  0  0  0
  1  2  3  0  0  0  0
  2  3  1  0  0  0  0
  3  4  2  0  0  0  0
  3 28  1  0  0  0  0
  4  5  1  0  0  0  0
  4 29  1  0  0  0  0
  5  6  1  0  0  0  0
  5 12  2  0  0  0  0
  6  7  2  0  0  0  0
  6 11  1  0  0  0  0
  7  8  1  0  0  0  0
  7 30  1  0  0  0  0
  8  9  2  0  0  0  0
  8 31  1  0  0  0  0
  9 10  1  0  0  0  0
  9 32  1  0  0  0  0
 10 11  2  0  0  0  0
 10 33  1  0  0  0  0
 11 34  1  0  0  0  0
 12 13  1  0  0  0  0
 12 35  1  0  0  0  0
 13 14  1  0  0  0  0
 13 28  2  0  0  0  0
 14 15  1  0  0  0  0
 14 36  1  0  0  0  0
 15 16  2  0  0  0  0
 15 17  1  0  0  0  0
 17 18  2  0  0  0  0
 17 26  1  0  0  0  0
 18 19  1  0  0  0  0
 19 20  1  0  0  0  0
 19 37  1  0  0  0  0
 20 21  2  0  0  0  0
 20 25  1  0  0  0  0
 21 22  1  0  0  0  0
 21 38  1  0  0  0  0
 22 23  2  0  0  0  0
 22 39  1  0  0  0  0
 23 24  1  0  0  0  0
 23 40  1  0  0  0  0
 24 25  2  0  0  0  0
 24 41  1  0  0  0  0
 25 26  1  0  0  0  0
 26 27  2  0  0  0  0
 28 42  1  0  0  0  0
M  END
$$$$
