
 OpenBabel01122422483D

 47 50  0  0  1  0  0  0  0  0999 V2000
    7.9480   -0.5487    7.0423 N   0  0  0  0  0  0  0  0  0  0  0  0
    7.9817   -0.4569    5.7852 C   0  0  0  0  0  0  0  0  0  0  0  0
    8.0223   -0.3462    4.2697 C   0  0  0  0  0  0  0  0  0  0  0  0
    7.8401   -1.4383    3.4991 C   0  0  0  0  0  0  0  0  0  0  0  0
    7.8923   -1.3181    2.1048 N   0  0  0  0  0  0  0  0  0  0  0  0
    7.7693   -2.2734    1.0970 C   0  0  0  0  0  0  0  0  0  0  0  0
    7.6264   -3.7021    1.2826 C   0  0  0  0  0  0  0  0  0  0  0  0
    7.6530   -4.2450    2.3836 O   0  0  0  0  0  0  0  0  0  0  0  0
    7.4623   -4.4301    0.1241 N   0  0  0  0  0  0  0  0  0  0  0  0
    7.3621   -5.8901    0.1068 C   0  0  3  0  0  0  0  0  0  0  0  0
    6.5773   -6.3811   -1.1302 C   0  0  0  0  0  0  0  0  0  0  0  0
    5.2512   -5.8400   -1.1364 O   0  0  0  0  0  0  0  0  0  0  0  0
    4.4596   -6.2232   -2.1896 C   0  0  0  0  0  0  0  0  0  0  0  0
    4.8603   -7.0370   -3.2536 C   0  0  0  0  0  0  0  0  0  0  0  0
    3.9595   -7.3713   -4.2669 C   0  0  0  0  0  0  0  0  0  0  0  0
    2.6521   -6.8946   -4.2256 C   0  0  0  0  0  0  0  0  0  0  0  0
    2.2461   -6.0779   -3.1723 C   0  0  0  0  0  0  0  0  0  0  0  0
    3.1487   -5.7416   -2.1593 C   0  0  0  0  0  0  0  0  0  0  0  0
    8.7508   -6.5239    0.1093 C   0  0  0  0  0  0  0  0  0  0  0  0
    9.1168   -7.4245    1.1246 C   0  0  0  0  0  0  0  0  0  0  0  0
   10.3902   -8.0018    1.1394 C   0  0  0  0  0  0  0  0  0  0  0  0
   11.3003   -7.6876    0.1381 C   0  0  0  0  0  0  0  0  0  0  0  0
   12.5267   -8.2258    0.1642 F   0  0  0  0  0  0  0  0  0  0  0  0
   10.9567   -6.8195   -0.8892 C   0  0  0  0  0  0  0  0  0  0  0  0
    9.6868   -6.2387   -0.9048 C   0  0  0  0  0  0  0  0  0  0  0  0
    7.8493   -1.5300   -0.0703 C   0  0  0  0  0  0  0  0  0  0  0  0
    8.0593   -0.2006    0.1684 N   0  0  0  0  0  0  0  0  0  0  0  0
    8.1052   -0.0923    1.4736 C   0  0  0  0  0  0  0  0  0  0  0  0
    8.3297    1.0507    2.2952 C   0  0  0  0  0  0  0  0  0  0  0  0
    8.2943    0.9353    3.6359 C   0  0  0  0  0  0  0  0  0  0  0  0
    7.6489   -2.4205    3.9144 H   0  0  0  0  0  0  0  0  0  0  0  0
    7.3575   -3.9556   -0.7579 H   0  0  0  0  0  0  0  0  0  0  0  0
    6.8110   -6.1854    1.0087 H   0  0  0  0  0  0  0  0  0  0  0  0
    6.5254   -7.4775   -1.1055 H   0  0  0  0  0  0  0  0  0  0  0  0
    7.0946   -6.0567   -2.0425 H   0  0  0  0  0  0  0  0  0  0  0  0
    5.8664   -7.4343   -3.3297 H   0  0  0  0  0  0  0  0  0  0  0  0
    4.2814   -8.0084   -5.0870 H   0  0  0  0  0  0  0  0  0  0  0  0
    1.9520   -7.1613   -5.0128 H   0  0  0  0  0  0  0  0  0  0  0  0
    1.2256   -5.7054   -3.1375 H   0  0  0  0  0  0  0  0  0  0  0  0
    2.8222   -5.1051   -1.3408 H   0  0  0  0  0  0  0  0  0  0  0  0
    8.4167   -7.6757    1.9195 H   0  0  0  0  0  0  0  0  0  0  0  0
   10.6807   -8.6871    1.9299 H   0  0  0  0  0  0  0  0  0  0  0  0
   11.6812   -6.5944   -1.6653 H   0  0  0  0  0  0  0  0  0  0  0  0
    9.4376   -5.5561   -1.7137 H   0  0  0  0  0  0  0  0  0  0  0  0
    7.7894   -1.8838   -1.0917 H   0  0  0  0  0  0  0  0  0  0  0  0
    8.5355    1.9993    1.8109 H   0  0  0  0  0  0  0  0  0  0  0  0
    8.4772    1.7995    4.2687 H   0  0  0  0  0  0  0  0  0  0  0  0
  1  2  3  0  0  0  0
  2  3  1  0  0  0  0
  3  4  2  0  0  0  0
  3 30  1  0  0  0  0
  4  5  1  0  0  0  0
  4 31  1  0  0  0  0
  5  6  1  0  0  0  0
  5 28  1  0  0  0  0
  6  7  1  0  0  0  0
  6 26  2  0  0  0  0
  7  8  2  0  0  0  0
  7  9  1  0  0  0  0
  9 10  1  0  0  0  0
  9 32  1  0  0  0  0
 10 11  1  0  0  0  0
 10 19  1  0  0  0  0
 10 33  1  0  0  0  0
 11 12  1  0  0  0  0
 11 34  1  0  0  0  0
 11 35  1  0  0  0  0
 12 13  1  0  0  0  0
 13 14  2  0  0  0  0
 13 18  1  0  0  0  0
 14 15  1  0  0  0  0
 14 36  1  0  0  0  0
 15 16  2  0  0  0  0
 15 37  1  0  0  0  0
 16 17  1  0  0  0  0
 16 38  1  0  0  0  0
 17 18  2  0  0  0  0
 17 39  1  0  0  0  0
 18 40  1  0  0  0  0
 19 20  2  0  0  0  0
 19 25  1  0  0  0  0
 20 21  1  0  0  0  0
 20 41  1  0  0  0  0
 21 22  2  0  0  0  0
 21 42  1  0  0  0  0
 22 23  1  0  0  0  0
 22 24  1  0  0  0  0
 24 25  2  0  0  0  0
 24 43  1  0  0  0  0
 25 44  1  0  0  0  0
 26 27  1  0  0  0  0
 26 45  1  0  0  0  0
 27 28  2  0  0  0  0
 28 29  1  0  0  0  0
 29 30  2  0  0  0  0
 29 46  1  0  0  0  0
 30 47  1  0  0  0  0
M  END
$$$$
