
 OpenBabel01122422483D

 53 56  0  0  0  0  0  0  0  0999 V2000
    2.3228   -1.3194   -0.2965 N   0  0  0  0  0  0  0  0  0  0  0  0
    2.1465   -0.0053    0.0319 C   0  0  0  0  0  0  0  0  0  0  0  0
    1.2787    0.6643   -0.5185 O   0  0  0  0  0  0  0  0  0  0  0  0
    3.0497    0.5375    1.1334 C   0  0  0  0  0  0  0  0  0  0  0  0
    4.5024    0.4458    0.8038 N   0  0  0  0  0  0  0  0  0  0  0  0
    4.7914    1.2632   -0.4136 C   0  0  0  0  0  0  0  0  0  0  0  0
    6.2592    1.2017   -0.8442 C   0  0  0  0  0  0  0  0  0  0  0  0
    6.9314    2.2372   -0.8353 O   0  0  0  0  0  0  0  0  0  0  0  0
    6.8490   -0.0858   -1.2287 C   0  0  0  0  0  0  0  0  0  0  0  0
    6.1849   -1.2782   -1.4512 C   0  0  0  0  0  0  0  0  0  0  0  0
    7.1155   -2.2620   -1.6616 N   0  0  0  0  0  0  0  0  0  0  0  0
    8.3831   -1.7389   -1.5777 C   0  0  0  0  0  0  0  0  0  0  0  0
    9.6306   -2.3723   -1.6328 C   0  0  0  0  0  0  0  0  0  0  0  0
   10.7683   -1.5737   -1.4780 C   0  0  0  0  0  0  0  0  0  0  0  0
   10.6649   -0.1958   -1.3119 C   0  0  0  0  0  0  0  0  0  0  0  0
    9.4143    0.4191   -1.2683 C   0  0  0  0  0  0  0  0  0  0  0  0
    8.2463   -0.3655   -1.3734 C   0  0  0  0  0  0  0  0  0  0  0  0
    5.2760    0.9894    1.9544 C   0  0  0  0  0  0  0  0  0  0  0  0
    5.0774    0.2176    3.2450 C   0  0  0  0  0  0  0  0  0  0  0  0
    5.3858   -1.1441    3.3347 C   0  0  0  0  0  0  0  0  0  0  0  0
    5.1582   -1.8491    4.5232 C   0  0  0  0  0  0  0  0  0  0  0  0
    4.6385   -1.2176    5.6658 C   0  0  0  0  0  0  0  0  0  0  0  0
    4.3885   -1.9457    6.9325 C   0  0  0  0  0  0  0  0  0  0  0  0
    5.1715   -3.0497    7.3176 C   0  0  0  0  0  0  0  0  0  0  0  0
    4.9632   -3.7033    8.5349 C   0  0  0  0  0  0  0  0  0  0  0  0
    3.9629   -3.2628    9.3994 C   0  0  0  0  0  0  0  0  0  0  0  0
    3.1671   -2.1876    9.0433 C   0  0  0  0  0  0  0  0  0  0  0  0
    3.3663   -1.5450    7.8162 C   0  0  0  0  0  0  0  0  0  0  0  0
    4.3596    0.1606    5.5631 C   0  0  0  0  0  0  0  0  0  0  0  0
    4.5638    0.8634    4.3707 C   0  0  0  0  0  0  0  0  0  0  0  0
    1.7322   -1.6644   -1.0385 H   0  0  0  0  0  0  0  0  0  0  0  0
    3.2537   -1.7046   -0.2085 H   0  0  0  0  0  0  0  0  0  0  0  0
    2.8184   -0.0693    2.0172 H   0  0  0  0  0  0  0  0  0  0  0  0
    2.7534    1.5705    1.3480 H   0  0  0  0  0  0  0  0  0  0  0  0
    4.5440    2.3188   -0.2389 H   0  0  0  0  0  0  0  0  0  0  0  0
    4.2032    0.9252   -1.2728 H   0  0  0  0  0  0  0  0  0  0  0  0
    5.1333   -1.5228   -1.4387 H   0  0  0  0  0  0  0  0  0  0  0  0
    6.9084   -3.2427   -1.7978 H   0  0  0  0  0  0  0  0  0  0  0  0
    9.7189   -3.4462   -1.7537 H   0  0  0  0  0  0  0  0  0  0  0  0
   11.7521   -2.0369   -1.4752 H   0  0  0  0  0  0  0  0  0  0  0  0
   11.5593    0.4106   -1.1889 H   0  0  0  0  0  0  0  0  0  0  0  0
    9.3402    1.4935   -1.1160 H   0  0  0  0  0  0  0  0  0  0  0  0
    5.0078    2.0439    2.1177 H   0  0  0  0  0  0  0  0  0  0  0  0
    6.3532    0.9736    1.7473 H   0  0  0  0  0  0  0  0  0  0  0  0
    5.7932   -1.6675    2.4711 H   0  0  0  0  0  0  0  0  0  0  0  0
    5.3851   -2.9128    4.5341 H   0  0  0  0  0  0  0  0  0  0  0  0
    5.9774   -3.4092    6.6809 H   0  0  0  0  0  0  0  0  0  0  0  0
    5.5820   -4.5518    8.8097 H   0  0  0  0  0  0  0  0  0  0  0  0
    3.8096   -3.7613   10.3575 H   0  0  0  0  0  0  0  0  0  0  0  0
    2.3855   -1.8338    9.7109 H   0  0  0  0  0  0  0  0  0  0  0  0
    2.7112   -0.7199    7.5660 H   0  0  0  0  0  0  0  0  0  0  0  0
    3.9789    0.7113    6.4133 H   0  0  0  0  0  0  0  0  0  0  0  0
    4.3097    1.9198    4.3437 H   0  0  0  0  0  0  0  0  0  0  0  0
  1  2  1  0  0  0  0
  1 31  1  0  0  0  0
  1 32  1  0  0  0  0
  2  3  2  0  0  0  0
  2  4  1  0  0  0  0
  4  5  1  0  0  0  0
  4 33  1  0  0  0  0
  4 34  1  0  0  0  0
  5  6  1  0  0  0  0
  5 18  1  0  0  0  0
  6  7  1  0  0  0  0
  6 35  1  0  0  0  0
  6 36  1  0  0  0  0
  7  8  2  0  0  0  0
  7  9  1  0  0  0  0
  9 10  2  0  0  0  0
  9 17  1  0  0  0  0
 10 11  1  0  0  0  0
 10 37  1  0  0  0  0
 11 12  1  0  0  0  0
 11 38  1  0  0  0  0
 12 13  2  0  0  0  0
 12 17  1  0  0  0  0
 13 14  1  0  0  0  0
 13 39  1  0  0  0  0
 14 15  2  0  0  0  0
 14 40  1  0  0  0  0
 15 16  1  0  0  0  0
 15 41  1  0  0  0  0
 16 17  2  0  0  0  0
 16 42  1  0  0  0  0
 18 19  1  0  0  0  0
 18 43  1  0  0  0  0
 18 44  1  0  0  0  0
 19 20  2  0  0  0  0
 19 30  1  0  0  0  0
 20 21  1  0  0  0  0
 20 45  1  0  0  0  0
 21 22  2  0  0  0  0
 21 46  1  0  0  0  0
 22 23  1  0  0  0  0
 22 29  1  0  0  0  0
 23 24  2  0  0  0  0
 23 28  1  0  0  0  0
 24 25  1  0  0  0  0
 24 47  1  0  0  0  0
 25 26  2  0  0  0  0
 25 48  1  0  0  0  0
 26 27  1  0  0  0  0
 26 49  1  0  0  0  0
 27 28  2  0  0  0  0
 27 50  1  0  0  0  0
 28 51  1  0  0  0  0
 29 30  2  0  0  0  0
 29 52  1  0  0  0  0
 30 53  1  0  0  0  0
M  END
$$$$
