
 OpenBabel01122422483D

 46 49  0  0  0  0  0  0  0  0999 V2000
    1.0831    0.1513    0.3781 C   0  0  0  0  0  0  0  0  0  0  0  0
    2.3816   -0.1399   -0.1364 O   0  0  0  0  0  0  0  0  0  0  0  0
    2.9802    0.8388   -0.8853 C   0  0  0  0  0  0  0  0  0  0  0  0
    2.5744    2.1688   -0.8116 C   0  0  0  0  0  0  0  0  0  0  0  0
    3.1652    3.1428   -1.6096 C   0  0  0  0  0  0  0  0  0  0  0  0
    4.2079    2.8413   -2.4821 C   0  0  0  0  0  0  0  0  0  0  0  0
    4.8015    3.8141   -3.3341 N   0  0  0  0  0  0  0  0  0  0  0  0
    4.4108    5.1448   -3.3837 C   0  0  0  0  0  0  0  0  0  0  0  0
    3.5595    5.6710   -2.6717 O   0  0  0  0  0  0  0  0  0  0  0  0
    5.0385    6.0588   -4.3589 C   0  0  0  0  0  0  0  0  0  0  0  0
    5.6062    5.6779   -5.5677 C   0  0  0  0  0  0  0  0  0  0  0  0
    6.0445    6.5709   -6.4975 N   0  0  0  0  0  0  0  0  0  0  0  0
    5.8819    7.8927   -6.2189 C   0  0  0  0  0  0  0  0  0  0  0  0
    6.2643    8.9011   -7.2371 C   0  0  0  0  0  0  0  0  0  0  0  0
    6.7512    8.5937   -8.3195 O   0  0  0  0  0  0  0  0  0  0  0  0
    6.0292   10.2202   -6.8954 N   0  0  0  0  0  0  0  0  0  0  0  0
    5.4904   10.6681   -5.7235 N   0  0  0  0  0  0  0  0  0  0  0  0
    5.1625    9.7773   -4.8414 C   0  0  0  0  0  0  0  0  0  0  0  0
    5.3362    8.3482   -5.0394 C   0  0  0  0  0  0  0  0  0  0  0  0
    4.9201    7.4305   -4.0916 C   0  0  0  0  0  0  0  0  0  0  0  0
    4.6677    1.5199   -2.5197 C   0  0  0  0  0  0  0  0  0  0  0  0
    4.0433    0.5053   -1.7498 C   0  0  0  0  0  0  0  0  0  0  0  0
    4.5425   -0.9052   -1.8462 C   0  0  0  0  0  0  0  0  0  0  0  0
    4.5450   -1.6344   -0.8577 O   0  0  0  0  0  0  0  0  0  0  0  0
    5.1055   -1.4585   -3.1142 C   0  0  0  0  0  0  0  0  0  0  0  0
    4.6665   -1.0455   -4.3787 C   0  0  0  0  0  0  0  0  0  0  0  0
    5.2413   -1.5860   -5.5330 C   0  0  0  0  0  0  0  0  0  0  0  0
    6.2354   -2.5592   -5.4324 C   0  0  0  0  0  0  0  0  0  0  0  0
    6.6574   -2.9962   -4.1783 C   0  0  0  0  0  0  0  0  0  0  0  0
    6.0933   -2.4504   -3.0233 C   0  0  0  0  0  0  0  0  0  0  0  0
    0.7129   -0.7353    0.8993 H   0  0  0  0  0  0  0  0  0  0  0  0
    0.3887    0.3804   -0.4383 H   0  0  0  0  0  0  0  0  0  0  0  0
    1.1046    0.9652    1.1118 H   0  0  0  0  0  0  0  0  0  0  0  0
    1.7922    2.5054   -0.1395 H   0  0  0  0  0  0  0  0  0  0  0  0
    2.7607    4.1408   -1.4944 H   0  0  0  0  0  0  0  0  0  0  0  0
    5.5633    3.4953   -3.9190 H   0  0  0  0  0  0  0  0  0  0  0  0
    5.6929    4.6399   -5.8693 H   0  0  0  0  0  0  0  0  0  0  0  0
    6.2665   10.9301   -7.5826 H   0  0  0  0  0  0  0  0  0  0  0  0
    4.7194   10.1187   -3.8906 H   0  0  0  0  0  0  0  0  0  0  0  0
    4.4634    7.7742   -3.1648 H   0  0  0  0  0  0  0  0  0  0  0  0
    5.5180    1.2692   -3.1482 H   0  0  0  0  0  0  0  0  0  0  0  0
    3.8696   -0.3153   -4.4865 H   0  0  0  0  0  0  0  0  0  0  0  0
    4.9050   -1.2586   -6.5140 H   0  0  0  0  0  0  0  0  0  0  0  0
    6.6714   -2.9886   -6.3315 H   0  0  0  0  0  0  0  0  0  0  0  0
    7.4209   -3.7665   -4.0974 H   0  0  0  0  0  0  0  0  0  0  0  0
    6.4248   -2.8041   -2.0481 H   0  0  0  0  0  0  0  0  0  0  0  0
  1  2  1  0  0  0  0
  1 31  1  0  0  0  0
  1 32  1  0  0  0  0
  1 33  1  0  0  0  0
  2  3  1  0  0  0  0
  3  4  2  0  0  0  0
  3 22  1  0  0  0  0
  4  5  1  0  0  0  0
  4 34  1  0  0  0  0
  5  6  2  0  0  0  0
  5 35  1  0  0  0  0
  6  7  1  0  0  0  0
  6 21  1  0  0  0  0
  7  8  1  0  0  0  0
  7 36  1  0  0  0  0
  8  9  2  0  0  0  0
  8 10  1  0  0  0  0
 10 11  2  0  0  0  0
 10 20  1  0  0  0  0
 11 12  1  0  0  0  0
 11 37  1  0  0  0  0
 12 13  2  0  0  0  0
 13 14  1  0  0  0  0
 13 19  1  0  0  0  0
 14 15  2  0  0  0  0
 14 16  1  0  0  0  0
 16 17  1  0  0  0  0
 16 38  1  0  0  0  0
 17 18  2  0  0  0  0
 18 19  1  0  0  0  0
 18 39  1  0  0  0  0
 19 20  2  0  0  0  0
 20 40  1  0  0  0  0
 21 22  2  0  0  0  0
 21 41  1  0  0  0  0
 22 23  1  0  0  0  0
 23 24  2  0  0  0  0
 23 25  1  0  0  0  0
 25 26  2  0  0  0  0
 25 30  1  0  0  0  0
 26 27  1  0  0  0  0
 26 42  1  0  0  0  0
 27 28  2  0  0  0  0
 27 43  1  0  0  0  0
 28 29  1  0  0  0  0
 28 44  1  0  0  0  0
 29 30  2  0  0  0  0
 29 45  1  0  0  0  0
 30 46  1  0  0  0  0
M  END
$$$$
