
 OpenBabel01122422453D

 47 50  0  0  0  0  0  0  0  0999 V2000
    1.1239   -0.0070   -0.4224 O   0  0  0  0  0  0  0  0  0  0  0  0
    2.2943    0.0448   -0.0692 C   0  0  0  0  0  0  0  0  0  0  0  0
    2.9112   -0.7364    0.8873 N   0  0  0  0  0  0  0  0  0  0  0  0
    2.3131   -1.7902    1.6006 C   0  0  0  0  0  0  0  0  0  0  0  0
    1.1109   -2.3901    1.2249 C   0  0  0  0  0  0  0  0  0  0  0  0
    0.5675   -3.4189    1.9946 C   0  0  0  0  0  0  0  0  0  0  0  0
    1.2284   -3.8650    3.1362 C   0  0  0  0  0  0  0  0  0  0  0  0
    0.6230   -4.8960    3.7956 O   0  0  0  0  0  0  0  0  0  0  0  0
    1.4918   -5.6822    4.6130 C   0  0  0  0  0  0  0  0  0  0  0  0
    0.8733   -7.0327    4.8330 C   0  0  0  0  0  0  0  0  0  0  0  0
    0.5338   -7.8322    3.7439 C   0  0  0  0  0  0  0  0  0  0  0  0
    0.0127   -9.0732    3.8794 N   0  0  0  0  0  0  0  0  0  0  0  0
   -0.1665   -9.4838    5.1542 C   0  0  0  0  0  0  0  0  0  0  0  0
    0.1704   -8.6981    6.2434 C   0  0  0  0  0  0  0  0  0  0  0  0
    0.7048   -7.4640    6.1101 N   0  0  0  0  0  0  0  0  0  0  0  0
    2.4208   -3.2571    3.5261 C   0  0  0  0  0  0  0  0  0  0  0  0
    2.9727   -2.2392    2.7478 C   0  0  0  0  0  0  0  0  0  0  0  0
    3.1483    1.1148   -0.6385 C   0  0  0  0  0  0  0  0  0  0  0  0
    4.5084    0.9160   -0.9020 C   0  0  0  0  0  0  0  0  0  0  0  0
    5.2656    1.9556   -1.4406 C   0  0  0  0  0  0  0  0  0  0  0  0
    4.6623    3.1855   -1.7181 C   0  0  0  0  0  0  0  0  0  0  0  0
    3.2983    3.3859   -1.4603 C   0  0  0  0  0  0  0  0  0  0  0  0
    2.6755    4.6912   -1.8137 C   0  0  0  0  0  0  0  0  0  0  0  0
    3.1388    5.3541   -2.8307 N   0  0  0  0  0  0  0  0  0  0  0  0
    2.5158    6.5278   -3.1399 N   0  0  0  0  0  0  0  0  0  0  0  0
    1.4391    7.0629   -2.4828 C   0  0  0  0  0  0  0  0  0  0  0  0
    0.8933    8.1077   -2.8193 O   0  0  0  0  0  0  0  0  0  0  0  0
    0.9638    6.3096   -1.3090 C   0  0  0  0  0  0  0  0  0  0  0  0
    1.5531    5.1631   -0.9616 C   0  0  0  0  0  0  0  0  0  0  0  0
    2.5400    2.3406   -0.9314 C   0  0  0  0  0  0  0  0  0  0  0  0
    3.8208   -0.4389    1.2151 H   0  0  0  0  0  0  0  0  0  0  0  0
    0.5779   -2.0905    0.3276 H   0  0  0  0  0  0  0  0  0  0  0  0
   -0.3702   -3.8775    1.6898 H   0  0  0  0  0  0  0  0  0  0  0  0
    1.6380   -5.1763    5.5746 H   0  0  0  0  0  0  0  0  0  0  0  0
    2.4651   -5.8429    4.1310 H   0  0  0  0  0  0  0  0  0  0  0  0
    0.6783   -7.4915    2.7232 H   0  0  0  0  0  0  0  0  0  0  0  0
   -0.5922  -10.4713    5.2799 H   0  0  0  0  0  0  0  0  0  0  0  0
    0.0204   -9.0429    7.2591 H   0  0  0  0  0  0  0  0  0  0  0  0
    2.9382   -3.5447    4.4356 H   0  0  0  0  0  0  0  0  0  0  0  0
    3.9066   -1.7875    3.0705 H   0  0  0  0  0  0  0  0  0  0  0  0
    4.9788   -0.0491   -0.7302 H   0  0  0  0  0  0  0  0  0  0  0  0
    6.3188    1.8062   -1.6626 H   0  0  0  0  0  0  0  0  0  0  0  0
    5.2599    3.9863   -2.1496 H   0  0  0  0  0  0  0  0  0  0  0  0
    2.8583    7.0233   -3.9554 H   0  0  0  0  0  0  0  0  0  0  0  0
    0.1380    6.7364   -0.7560 H   0  0  0  0  0  0  0  0  0  0  0  0
    1.2389    4.6109   -0.0875 H   0  0  0  0  0  0  0  0  0  0  0  0
    1.4704    2.4467   -0.7653 H   0  0  0  0  0  0  0  0  0  0  0  0
  1  2  2  0  0  0  0
  2  3  1  0  0  0  0
  2 18  1  0  0  0  0
  3  4  1  0  0  0  0
  3 31  1  0  0  0  0
  4  5  2  0  0  0  0
  4 17  1  0  0  0  0
  5  6  1  0  0  0  0
  5 32  1  0  0  0  0
  6  7  2  0  0  0  0
  6 33  1  0  0  0  0
  7  8  1  0  0  0  0
  7 16  1  0  0  0  0
  8  9  1  0  0  0  0
  9 10  1  0  0  0  0
  9 34  1  0  0  0  0
  9 35  1  0  0  0  0
 10 11  2  0  0  0  0
 10 15  1  0  0  0  0
 11 12  1  0  0  0  0
 11 36  1  0  0  0  0
 12 13  2  0  0  0  0
 13 14  1  0  0  0  0
 13 37  1  0  0  0  0
 14 15  2  0  0  0  0
 14 38  1  0  0  0  0
 16 17  2  0  0  0  0
 16 39  1  0  0  0  0
 17 40  1  0  0  0  0
 18 19  2  0  0  0  0
 18 30  1  0  0  0  0
 19 20  1  0  0  0  0
 19 41  1  0  0  0  0
 20 21  2  0  0  0  0
 20 42  1  0  0  0  0
 21 22  1  0  0  0  0
 21 43  1  0  0  0  0
 22 23  1  0  0  0  0
 22 30  2  0  0  0  0
 23 24  2  0  0  0  0
 23 29  1  0  0  0  0
 24 25  1  0  0  0  0
 25 26  1  0  0  0  0
 25 44  1  0  0  0  0
 26 27  2  0  0  0  0
 26 28  1  0  0  0  0
 28 29  2  0  0  0  0
 28 45  1  0  0  0  0
 29 46  1  0  0  0  0
 30 47  1  0  0  0  0
M  END
$$$$
