
 OpenBabel01122422483D

 47 49  0  0  1  0  0  0  0  0999 V2000
    2.1076    0.2895    3.2377 O   0  0  0  0  0  0  0  0  0  0  0  0
    1.4548    1.3023    2.9437 C   0  0  0  0  0  0  0  0  0  0  0  0
    1.8784    1.9516    1.8270 N   0  0  0  0  0  0  0  0  0  0  0  0
    1.5412    3.2452    1.2964 C   0  0  0  0  0  0  0  0  0  0  0  0
    2.7689    4.1140    1.0499 C   0  0  0  0  0  0  0  0  0  0  0  0
    3.0865    4.5080   -0.2660 C   0  0  0  0  0  0  0  0  0  0  0  0
    4.1205    5.4144   -0.5282 C   0  0  0  0  0  0  0  0  0  0  0  0
    4.8917    5.9100    0.5155 C   0  0  0  0  0  0  0  0  0  0  0  0
    4.6524    5.4692    1.8101 C   0  0  0  0  0  0  0  0  0  0  0  0
    3.5787    4.6033    2.0962 C   0  0  0  0  0  0  0  0  0  0  0  0
    3.3020    4.1898    3.3880 O   0  0  0  0  0  0  0  0  0  0  0  0
    3.7530    4.9996    4.4241 C   0  0  0  0  0  0  0  0  0  0  0  0
    3.3161    6.3103    4.5252 C   0  0  0  0  0  0  0  0  0  0  0  0
    3.8627    7.1190    5.5177 C   0  0  0  0  0  0  0  0  0  0  0  0
    4.7691    6.5649    6.4130 C   0  0  0  0  0  0  0  0  0  0  0  0
    5.0894    5.2227    6.2781 C   0  0  0  0  0  0  0  0  0  0  0  0
    4.6074    4.4226    5.2957 N   0  0  0  0  0  0  0  0  0  0  0  0
    0.1342    1.6150    3.6822 C   0  0  3  0  0  0  0  0  0  0  0  0
   -0.0943    0.5652    4.6452 O   0  0  0  0  0  0  0  0  0  0  0  0
   -0.1646    2.8608    4.4997 C   0  0  0  0  0  0  0  0  0  0  0  0
   -1.5346    3.1693    4.6401 C   0  0  0  0  0  0  0  0  0  0  0  0
   -1.9983    3.9721    5.6772 C   0  0  0  0  0  0  0  0  0  0  0  0
   -1.0959    4.5547    6.5566 C   0  0  0  0  0  0  0  0  0  0  0  0
    0.2748    4.4160    6.3494 C   0  0  0  0  0  0  0  0  0  0  0  0
    1.2324    5.0345    7.1010 O   0  0  0  0  0  0  0  0  0  0  0  0
    0.9297    6.2494    7.7900 C   0  0  0  0  0  0  0  0  0  0  0  0
   -0.2815    6.7799    7.5127 F   0  0  0  0  0  0  0  0  0  0  0  0
    1.0112    6.0445    9.1234 F   0  0  0  0  0  0  0  0  0  0  0  0
    1.8455    7.1895    7.4647 F   0  0  0  0  0  0  0  0  0  0  0  0
    0.7340    3.5142    5.3602 C   0  0  0  0  0  0  0  0  0  0  0  0
    2.6339    1.4555    1.3698 H   0  0  0  0  0  0  0  0  0  0  0  0
    0.8305    3.7644    1.9252 H   0  0  0  0  0  0  0  0  0  0  0  0
    1.0437    3.0480    0.3253 H   0  0  0  0  0  0  0  0  0  0  0  0
    2.5169    4.1256   -1.1115 H   0  0  0  0  0  0  0  0  0  0  0  0
    4.3214    5.7384   -1.5448 H   0  0  0  0  0  0  0  0  0  0  0  0
    5.6818    6.6302    0.3250 H   0  0  0  0  0  0  0  0  0  0  0  0
    5.3136    5.8304    2.5986 H   0  0  0  0  0  0  0  0  0  0  0  0
    2.6058    6.7124    3.8150 H   0  0  0  0  0  0  0  0  0  0  0  0
    3.5704    8.1567    5.5971 H   0  0  0  0  0  0  0  0  0  0  0  0
    5.1882    7.1596    7.2172 H   0  0  0  0  0  0  0  0  0  0  0  0
    5.7725    4.7434    6.9727 H   0  0  0  0  0  0  0  0  0  0  0  0
   -0.6478    1.4900    2.9233 H   0  0  0  0  0  0  0  0  0  0  0  0
    0.6437    0.6404    5.2858 H   0  0  0  0  0  0  0  0  0  0  0  0
   -2.2738    2.6659    4.0167 H   0  0  0  0  0  0  0  0  0  0  0  0
   -3.0663    4.0929    5.8368 H   0  0  0  0  0  0  0  0  0  0  0  0
   -1.5062    5.0837    7.4114 H   0  0  0  0  0  0  0  0  0  0  0  0
    1.7937    3.2714    5.3278 H   0  0  0  0  0  0  0  0  0  0  0  0
  1  2  2  0  0  0  0
  2  3  1  0  0  0  0
  2 18  1  0  0  0  0
  3  4  1  0  0  0  0
  3 31  1  0  0  0  0
  4  5  1  0  0  0  0
  4 32  1  0  0  0  0
  4 33  1  0  0  0  0
  5  6  2  0  0  0  0
  5 10  1  0  0  0  0
  6  7  1  0  0  0  0
  6 34  1  0  0  0  0
  7  8  2  0  0  0  0
  7 35  1  0  0  0  0
  8  9  1  0  0  0  0
  8 36  1  0  0  0  0
  9 10  2  0  0  0  0
  9 37  1  0  0  0  0
 10 11  1  0  0  0  0
 11 12  1  0  0  0  0
 12 13  2  0  0  0  0
 12 17  1  0  0  0  0
 13 14  1  0  0  0  0
 13 38  1  0  0  0  0
 14 15  2  0  0  0  0
 14 39  1  0  0  0  0
 15 16  1  0  0  0  0
 15 40  1  0  0  0  0
 16 17  2  0  0  0  0
 16 41  1  0  0  0  0
 18 19  1  0  0  0  0
 18 20  1  0  0  0  0
 18 42  1  0  0  0  0
 19 43  1  0  0  0  0
 20 21  2  0  0  0  0
 20 30  1  0  0  0  0
 21 22  1  0  0  0  0
 21 44  1  0  0  0  0
 22 23  2  0  0  0  0
 22 45  1  0  0  0  0
 23 24  1  0  0  0  0
 23 46  1  0  0  0  0
 24 25  1  0  0  0  0
 24 30  2  0  0  0  0
 25 26  1  0  0  0  0
 26 27  1  0  0  0  0
 26 28  1  0  0  0  0
 26 29  1  0  0  0  0
 30 47  1  0  0  0  0
M  END
$$$$
