
 OpenBabel01122422483D

 48 51  0  0  0  0  0  0  0  0999 V2000
    2.1803   -0.2959   -1.2099 O   0  0  0  0  0  0  0  0  0  0  0  0
    2.2681   -0.1384    0.0011 C   0  0  0  0  0  0  0  0  0  0  0  0
    2.9580   -1.0938    0.9546 C   0  0  0  0  0  0  0  0  0  0  0  0
    2.0350   -1.9767    1.5740 O   0  0  0  0  0  0  0  0  0  0  0  0
    2.5708   -2.9009    2.4352 C   0  0  0  0  0  0  0  0  0  0  0  0
    3.9258   -3.0307    2.7507 C   0  0  0  0  0  0  0  0  0  0  0  0
    4.3532   -4.0338    3.6230 C   0  0  0  0  0  0  0  0  0  0  0  0
    3.4279   -4.9034    4.1952 C   0  0  0  0  0  0  0  0  0  0  0  0
    2.0660   -4.7449    3.9322 C   0  0  0  0  0  0  0  0  0  0  0  0
    1.0895   -5.5602    4.4625 O   0  0  0  0  0  0  0  0  0  0  0  0
    1.2239   -5.9779    5.7836 C   0  0  0  0  0  0  0  0  0  0  0  0
    0.5547   -7.1422    6.1347 C   0  0  0  0  0  0  0  0  0  0  0  0
    0.6839   -7.6100    7.4387 C   0  0  0  0  0  0  0  0  0  0  0  0
    1.4655   -6.8996    8.3451 C   0  0  0  0  0  0  0  0  0  0  0  0
    2.0710   -5.7316    7.9112 C   0  0  0  0  0  0  0  0  0  0  0  0
    1.9543   -5.2483    6.6573 N   0  0  0  0  0  0  0  0  0  0  0  0
    1.6448   -3.7659    3.0276 C   0  0  0  0  0  0  0  0  0  0  0  0
    1.8159    0.9546    0.6795 O   0  0  0  0  0  0  0  0  0  0  0  0
    1.5970    2.1208   -0.1303 C   0  0  0  0  0  0  0  0  0  0  0  0
    2.8981    2.8475   -0.2292 C   0  0  0  0  0  0  0  0  0  0  0  0
    4.0240    2.4669    0.3531 N   0  0  0  0  0  0  0  0  0  0  0  0
    5.0450    3.2406   -0.1181 N   0  0  0  0  0  0  0  0  0  0  0  0
    4.5302    4.0879   -0.9741 C   0  0  0  0  0  0  0  0  0  0  0  0
    3.1681    3.9232   -1.0659 N   0  0  0  0  0  0  0  0  0  0  0  0
    2.2926    4.6969   -1.8718 C   0  0  0  0  0  0  0  0  0  0  0  0
    2.7710    5.2726   -3.0596 C   0  0  0  0  0  0  0  0  0  0  0  0
    1.9087    6.0003   -3.8829 C   0  0  0  0  0  0  0  0  0  0  0  0
    0.5769    6.1801   -3.5174 C   0  0  0  0  0  0  0  0  0  0  0  0
    0.1081    5.6480   -2.3196 C   0  0  0  0  0  0  0  0  0  0  0  0
    0.9613    4.9102   -1.4958 C   0  0  0  0  0  0  0  0  0  0  0  0
    3.4871   -0.4909    1.7044 H   0  0  0  0  0  0  0  0  0  0  0  0
    3.6983   -1.6472    0.3634 H   0  0  0  0  0  0  0  0  0  0  0  0
    4.6830   -2.3726    2.3362 H   0  0  0  0  0  0  0  0  0  0  0  0
    5.4080   -4.1335    3.8645 H   0  0  0  0  0  0  0  0  0  0  0  0
    3.7802   -5.6831    4.8640 H   0  0  0  0  0  0  0  0  0  0  0  0
   -0.0398   -7.6790    5.4047 H   0  0  0  0  0  0  0  0  0  0  0  0
    0.1860   -8.5269    7.7465 H   0  0  0  0  0  0  0  0  0  0  0  0
    1.6016   -7.2457    9.3645 H   0  0  0  0  0  0  0  0  0  0  0  0
    2.6907   -5.1388    8.5773 H   0  0  0  0  0  0  0  0  0  0  0  0
    0.5891   -3.6702    2.7906 H   0  0  0  0  0  0  0  0  0  0  0  0
    0.8589    2.7194    0.4085 H   0  0  0  0  0  0  0  0  0  0  0  0
    1.1856    1.8663   -1.1128 H   0  0  0  0  0  0  0  0  0  0  0  0
    5.0828    4.8530   -1.4994 H   0  0  0  0  0  0  0  0  0  0  0  0
    3.7953    5.1316   -3.3972 H   0  0  0  0  0  0  0  0  0  0  0  0
    2.2741    6.4186   -4.8180 H   0  0  0  0  0  0  0  0  0  0  0  0
   -0.0942    6.7418   -4.1628 H   0  0  0  0  0  0  0  0  0  0  0  0
   -0.9241    5.8156   -2.0202 H   0  0  0  0  0  0  0  0  0  0  0  0
    0.5659    4.5745   -0.5437 H   0  0  0  0  0  0  0  0  0  0  0  0
  1  2  2  0  0  0  0
  2  3  1  0  0  0  0
  2 18  1  0  0  0  0
  3  4  1  0  0  0  0
  3 31  1  0  0  0  0
  3 32  1  0  0  0  0
  4  5  1  0  0  0  0
  5  6  2  0  0  0  0
  5 17  1  0  0  0  0
  6  7  1  0  0  0  0
  6 33  1  0  0  0  0
  7  8  2  0  0  0  0
  7 34  1  0  0  0  0
  8  9  1  0  0  0  0
  8 35  1  0  0  0  0
  9 10  1  0  0  0  0
  9 17  2  0  0  0  0
 10 11  1  0  0  0  0
 11 12  2  0  0  0  0
 11 16  1  0  0  0  0
 12 13  1  0  0  0  0
 12 36  1  0  0  0  0
 13 14  2  0  0  0  0
 13 37  1  0  0  0  0
 14 15  1  0  0  0  0
 14 38  1  0  0  0  0
 15 16  2  0  0  0  0
 15 39  1  0  0  0  0
 17 40  1  0  0  0  0
 18 19  1  0  0  0  0
 19 20  1  0  0  0  0
 19 41  1  0  0  0  0
 19 42  1  0  0  0  0
 20 21  2  0  0  0  0
 20 24  1  0  0  0  0
 21 22  1  0  0  0  0
 22 23  2  0  0  0  0
 23 24  1  0  0  0  0
 23 43  1  0  0  0  0
 24 25  1  0  0  0  0
 25 26  2  0  0  0  0
 25 30  1  0  0  0  0
 26 27  1  0  0  0  0
 26 44  1  0  0  0  0
 27 28  2  0  0  0  0
 27 45  1  0  0  0  0
 28 29  1  0  0  0  0
 28 46  1  0  0  0  0
 29 30  2  0  0  0  0
 29 47  1  0  0  0  0
 30 48  1  0  0  0  0
M  END
$$$$
