
 OpenBabel01122422483D

 51 54  0  0  0  0  0  0  0  0999 V2000
    2.5988    1.0318    0.2956 O   0  0  0  0  0  0  0  0  0  0  0  0
    2.1075    0.0550   -0.2602 C   0  0  0  0  0  0  0  0  0  0  0  0
    0.6273   -0.0995   -0.5191 C   0  0  0  0  0  0  0  0  0  0  0  0
   -0.0873    1.2498   -0.5070 C   0  0  0  0  0  0  0  0  0  0  0  0
   -1.5467    1.1098   -0.8049 C   0  0  0  0  0  0  0  0  0  0  0  0
   -2.1498   -0.0312   -1.0879 N   0  0  0  0  0  0  0  0  0  0  0  0
   -3.4999    0.1743   -1.0753 N   0  0  0  0  0  0  0  0  0  0  0  0
   -3.7012    1.4395   -0.7972 C   0  0  0  0  0  0  0  0  0  0  0  0
   -2.5065    2.1063   -0.6695 N   0  0  0  0  0  0  0  0  0  0  0  0
   -2.3471    3.4926   -0.4115 C   0  0  0  0  0  0  0  0  0  0  0  0
   -3.3302    4.1861    0.3094 C   0  0  0  0  0  0  0  0  0  0  0  0
   -3.1344    5.5289    0.6436 C   0  0  0  0  0  0  0  0  0  0  0  0
   -1.9785    6.1923    0.2374 C   0  0  0  0  0  0  0  0  0  0  0  0
   -1.0304    5.5256   -0.5327 C   0  0  0  0  0  0  0  0  0  0  0  0
   -1.2159    4.1819   -0.8630 C   0  0  0  0  0  0  0  0  0  0  0  0
    2.8358   -1.0284   -0.6817 N   0  0  0  0  0  0  0  0  0  0  0  0
    4.2790   -1.0688   -0.6275 C   0  0  0  0  0  0  0  0  0  0  0  0
    4.8833   -0.9446   -2.0072 C   0  0  0  0  0  0  0  0  0  0  0  0
    5.2594    0.3023   -2.4995 C   0  0  0  0  0  0  0  0  0  0  0  0
    5.8895    0.3668   -3.7419 C   0  0  0  0  0  0  0  0  0  0  0  0
    6.3561    1.5242   -4.3216 O   0  0  0  0  0  0  0  0  0  0  0  0
    6.8670    2.5298   -3.5314 C   0  0  0  0  0  0  0  0  0  0  0  0
    7.5701    2.3195   -2.3440 C   0  0  0  0  0  0  0  0  0  0  0  0
    8.0002    3.4138   -1.6032 C   0  0  0  0  0  0  0  0  0  0  0  0
    8.6140    3.2114   -0.4300 F   0  0  0  0  0  0  0  0  0  0  0  0
    7.7974    4.7133   -2.0535 C   0  0  0  0  0  0  0  0  0  0  0  0
    7.1620    4.9242   -3.2757 C   0  0  0  0  0  0  0  0  0  0  0  0
    6.6979    3.8321   -4.0136 C   0  0  0  0  0  0  0  0  0  0  0  0
    6.0219   -0.7900   -4.5019 C   0  0  0  0  0  0  0  0  0  0  0  0
    5.5703   -1.9778   -3.9613 C   0  0  0  0  0  0  0  0  0  0  0  0
    5.0142   -2.0828   -2.7345 N   0  0  0  0  0  0  0  0  0  0  0  0
    0.2162   -0.7647    0.2488 H   0  0  0  0  0  0  0  0  0  0  0  0
    0.4897   -0.5801   -1.4975 H   0  0  0  0  0  0  0  0  0  0  0  0
    0.3925    1.8843   -1.2571 H   0  0  0  0  0  0  0  0  0  0  0  0
    0.0416    1.7292    0.4717 H   0  0  0  0  0  0  0  0  0  0  0  0
   -4.6688    1.9144   -0.7299 H   0  0  0  0  0  0  0  0  0  0  0  0
   -4.2302    3.6979    0.6750 H   0  0  0  0  0  0  0  0  0  0  0  0
   -3.8775    6.0547    1.2385 H   0  0  0  0  0  0  0  0  0  0  0  0
   -1.8188    7.2311    0.5150 H   0  0  0  0  0  0  0  0  0  0  0  0
   -0.1431    6.0504   -0.8789 H   0  0  0  0  0  0  0  0  0  0  0  0
   -0.4816    3.7233   -1.5158 H   0  0  0  0  0  0  0  0  0  0  0  0
    2.3909   -1.7487   -1.2361 H   0  0  0  0  0  0  0  0  0  0  0  0
    4.5585   -2.0357   -0.2011 H   0  0  0  0  0  0  0  0  0  0  0  0
    4.6737   -0.2892    0.0393 H   0  0  0  0  0  0  0  0  0  0  0  0
    5.0790    1.1917   -1.9065 H   0  0  0  0  0  0  0  0  0  0  0  0
    7.7772    1.3234   -1.9684 H   0  0  0  0  0  0  0  0  0  0  0  0
    8.1430    5.5490   -1.4535 H   0  0  0  0  0  0  0  0  0  0  0  0
    7.0215    5.9350   -3.6501 H   0  0  0  0  0  0  0  0  0  0  0  0
    6.1968    3.9976   -4.9645 H   0  0  0  0  0  0  0  0  0  0  0  0
    6.4693   -0.7643   -5.4889 H   0  0  0  0  0  0  0  0  0  0  0  0
    5.6483   -2.9104   -4.5175 H   0  0  0  0  0  0  0  0  0  0  0  0
  1  2  2  0  0  0  0
  2  3  1  0  0  0  0
  2 16  1  0  0  0  0
  3  4  1  0  0  0  0
  3 32  1  0  0  0  0
  3 33  1  0  0  0  0
  4  5  1  0  0  0  0
  4 34  1  0  0  0  0
  4 35  1  0  0  0  0
  5  6  2  0  0  0  0
  5  9  1  0  0  0  0
  6  7  1  0  0  0  0
  7  8  2  0  0  0  0
  8  9  1  0  0  0  0
  8 36  1  0  0  0  0
  9 10  1  0  0  0  0
 10 11  2  0  0  0  0
 10 15  1  0  0  0  0
 11 12  1  0  0  0  0
 11 37  1  0  0  0  0
 12 13  2  0  0  0  0
 12 38  1  0  0  0  0
 13 14  1  0  0  0  0
 13 39  1  0  0  0  0
 14 15  2  0  0  0  0
 14 40  1  0  0  0  0
 15 41  1  0  0  0  0
 16 17  1  0  0  0  0
 16 42  1  0  0  0  0
 17 18  1  0  0  0  0
 17 43  1  0  0  0  0
 17 44  1  0  0  0  0
 18 19  2  0  0  0  0
 18 31  1  0  0  0  0
 19 20  1  0  0  0  0
 19 45  1  0  0  0  0
 20 21  1  0  0  0  0
 20 29  2  0  0  0  0
 21 22  1  0  0  0  0
 22 23  2  0  0  0  0
 22 28  1  0  0  0  0
 23 24  1  0  0  0  0
 23 46  1  0  0  0  0
 24 25  1  0  0  0  0
 24 26  2  0  0  0  0
 26 27  1  0  0  0  0
 26 47  1  0  0  0  0
 27 28  2  0  0  0  0
 27 48  1  0  0  0  0
 28 49  1  0  0  0  0
 29 30  1  0  0  0  0
 29 50  1  0  0  0  0
 30 31  2  0  0  0  0
 30 51  1  0  0  0  0
M  END
$$$$
