
 OpenBabel01122422483D

 47 50  0  0  0  0  0  0  0  0999 V2000
    1.2027   -0.6559   -0.4768 O   0  0  0  0  0  0  0  0  0  0  0  0
    2.2473   -0.1598   -0.0790 C   0  0  0  0  0  0  0  0  0  0  0  0
    2.7841   -0.3391    1.1836 N   0  0  0  0  0  0  0  0  0  0  0  0
    2.2094   -1.0706    2.2457 C   0  0  0  0  0  0  0  0  0  0  0  0
    1.0856   -1.8887    2.1130 C   0  0  0  0  0  0  0  0  0  0  0  0
    0.5460   -2.5409    3.2235 C   0  0  0  0  0  0  0  0  0  0  0  0
    1.1425   -2.3999    4.4725 C   0  0  0  0  0  0  0  0  0  0  0  0
    2.2932   -1.6267    4.6097 C   0  0  0  0  0  0  0  0  0  0  0  0
    2.8303   -1.5871    5.8679 O   0  0  0  0  0  0  0  0  0  0  0  0
    4.2393   -1.3342    5.9105 C   0  0  0  0  0  0  0  0  0  0  0  0
    4.8636   -1.8697    7.1773 C   0  0  0  0  0  0  0  0  0  0  0  0
    4.3385   -2.9855    7.8263 C   0  0  0  0  0  0  0  0  0  0  0  0
    4.9992   -3.4883    8.9425 C   0  0  0  0  0  0  0  0  0  0  0  0
    6.1701   -2.8777    9.3724 C   0  0  0  0  0  0  0  0  0  0  0  0
    6.6349   -1.7830    8.6653 C   0  0  0  0  0  0  0  0  0  0  0  0
    6.0144   -1.2704    7.5810 N   0  0  0  0  0  0  0  0  0  0  0  0
    2.8103   -0.9452    3.5035 C   0  0  0  0  0  0  0  0  0  0  0  0
    3.0180    0.7328   -0.9054 C   0  0  0  0  0  0  0  0  0  0  0  0
    4.3807    0.7072   -1.1370 C   0  0  0  0  0  0  0  0  0  0  0  0
    4.7422    1.5928   -2.1067 N   0  0  0  0  0  0  0  0  0  0  0  0
    3.6158    2.1525   -2.4849 C   0  0  0  0  0  0  0  0  0  0  0  0
    2.5230    1.7100   -1.7642 N   0  0  0  0  0  0  0  0  0  0  0  0
    1.1961    2.2239   -1.8829 C   0  0  0  0  0  0  0  0  0  0  0  0
    0.7752    2.8121   -3.0869 C   0  0  0  0  0  0  0  0  0  0  0  0
   -0.5291    3.3048   -3.2168 C   0  0  0  0  0  0  0  0  0  0  0  0
   -1.4062    3.2232   -2.1416 C   0  0  0  0  0  0  0  0  0  0  0  0
   -2.6841    3.6884   -2.2243 O   0  0  0  0  0  0  0  0  0  0  0  0
   -1.0003    2.6625   -0.9397 C   0  0  0  0  0  0  0  0  0  0  0  0
    0.3003    2.1695   -0.8052 C   0  0  0  0  0  0  0  0  0  0  0  0
    3.6197    0.1879    1.4021 H   0  0  0  0  0  0  0  0  0  0  0  0
    0.5989   -2.0472    1.1560 H   0  0  0  0  0  0  0  0  0  0  0  0
   -0.3389   -3.1612    3.1058 H   0  0  0  0  0  0  0  0  0  0  0  0
    0.7191   -2.9086    5.3344 H   0  0  0  0  0  0  0  0  0  0  0  0
    4.4028   -0.2510    5.8613 H   0  0  0  0  0  0  0  0  0  0  0  0
    4.7573   -1.8270    5.0775 H   0  0  0  0  0  0  0  0  0  0  0  0
    3.4311   -3.4626    7.4687 H   0  0  0  0  0  0  0  0  0  0  0  0
    4.6050   -4.3539    9.4662 H   0  0  0  0  0  0  0  0  0  0  0  0
    6.7102   -3.2491   10.2352 H   0  0  0  0  0  0  0  0  0  0  0  0
    7.5501   -1.2759    8.9560 H   0  0  0  0  0  0  0  0  0  0  0  0
    3.6703   -0.2936    3.6187 H   0  0  0  0  0  0  0  0  0  0  0  0
    5.1145    0.0488   -0.6871 H   0  0  0  0  0  0  0  0  0  0  0  0
    3.5449    2.9241   -3.2392 H   0  0  0  0  0  0  0  0  0  0  0  0
    1.4212    2.8587   -3.9596 H   0  0  0  0  0  0  0  0  0  0  0  0
   -0.8427    3.7338   -4.1634 H   0  0  0  0  0  0  0  0  0  0  0  0
   -2.8314    4.0427   -3.1161 H   0  0  0  0  0  0  0  0  0  0  0  0
   -1.6933    2.6042   -0.1044 H   0  0  0  0  0  0  0  0  0  0  0  0
    0.5787    1.7720    0.1658 H   0  0  0  0  0  0  0  0  0  0  0  0
  1  2  2  0  0  0  0
  2  3  1  0  0  0  0
  2 18  1  0  0  0  0
  3  4  1  0  0  0  0
  3 30  1  0  0  0  0
  4  5  2  0  0  0  0
  4 17  1  0  0  0  0
  5  6  1  0  0  0  0
  5 31  1  0  0  0  0
  6  7  2  0  0  0  0
  6 32  1  0  0  0  0
  7  8  1  0  0  0  0
  7 33  1  0  0  0  0
  8  9  1  0  0  0  0
  8 17  2  0  0  0  0
  9 10  1  0  0  0  0
 10 11  1  0  0  0  0
 10 34  1  0  0  0  0
 10 35  1  0  0  0  0
 11 12  2  0  0  0  0
 11 16  1  0  0  0  0
 12 13  1  0  0  0  0
 12 36  1  0  0  0  0
 13 14  2  0  0  0  0
 13 37  1  0  0  0  0
 14 15  1  0  0  0  0
 14 38  1  0  0  0  0
 15 16  2  0  0  0  0
 15 39  1  0  0  0  0
 17 40  1  0  0  0  0
 18 19  2  0  0  0  0
 18 22  1  0  0  0  0
 19 20  1  0  0  0  0
 19 41  1  0  0  0  0
 20 21  2  0  0  0  0
 21 22  1  0  0  0  0
 21 42  1  0  0  0  0
 22 23  1  0  0  0  0
 23 24  2  0  0  0  0
 23 29  1  0  0  0  0
 24 25  1  0  0  0  0
 24 43  1  0  0  0  0
 25 26  2  0  0  0  0
 25 44  1  0  0  0  0
 26 27  1  0  0  0  0
 26 28  1  0  0  0  0
 27 45  1  0  0  0  0
 28 29  2  0  0  0  0
 28 46  1  0  0  0  0
 29 47  1  0  0  0  0
M  END
$$$$
