
 OpenBabel01122422453D

 42 45  0  0  0  0  0  0  0  0999 V2000
    3.0833   -1.2886    1.5887 O   0  0  0  0  0  0  0  0  0  0  0  0
    3.7302   -0.4475    0.9905 C   0  0  0  0  0  0  0  0  0  0  0  0
    3.4368    0.9036    0.9457 N   0  0  0  0  0  0  0  0  0  0  0  0
    2.4603    1.5657    1.7799 C   0  0  0  0  0  0  0  0  0  0  0  0
    3.1707    2.4421    2.7853 C   0  0  0  0  0  0  0  0  0  0  0  0
    3.4832    1.9613    4.0435 C   0  0  0  0  0  0  0  0  0  0  0  0
    4.2720    2.6347    4.9179 N   0  0  0  0  0  0  0  0  0  0  0  0
    4.7568    3.8354    4.4975 C   0  0  0  0  0  0  0  0  0  0  0  0
    5.7210    4.5052    5.3859 C   0  0  0  0  0  0  0  0  0  0  0  0
    6.5881    3.7465    6.1960 C   0  0  0  0  0  0  0  0  0  0  0  0
    7.5677    4.3535    6.9865 C   0  0  0  0  0  0  0  0  0  0  0  0
    7.6951    5.7384    6.9884 C   0  0  0  0  0  0  0  0  0  0  0  0
    6.8343    6.5161    6.2193 C   0  0  0  0  0  0  0  0  0  0  0  0
    5.8543    5.9058    5.4300 C   0  0  0  0  0  0  0  0  0  0  0  0
    4.4138    4.3224    3.2377 C   0  0  0  0  0  0  0  0  0  0  0  0
    3.6341    3.6505    2.3540 N   0  0  0  0  0  0  0  0  0  0  0  0
    4.9269   -0.8044    0.1988 C   0  0  0  0  0  0  0  0  0  0  0  0
    4.9655   -1.8731   -0.6751 C   0  0  0  0  0  0  0  0  0  0  0  0
    5.9293   -2.0028   -1.6337 N   0  0  0  0  0  0  0  0  0  0  0  0
    6.8125   -0.9766   -1.8107 C   0  0  0  0  0  0  0  0  0  0  0  0
    7.7251   -0.8937   -2.8719 C   0  0  0  0  0  0  0  0  0  0  0  0
    7.8607   -1.9250   -3.7209 F   0  0  0  0  0  0  0  0  0  0  0  0
    8.4900    0.2551   -3.1197 C   0  0  0  0  0  0  0  0  0  0  0  0
    8.3685    1.3657   -2.3003 C   0  0  0  0  0  0  0  0  0  0  0  0
    7.5440    1.2746   -1.1909 C   0  0  0  0  0  0  0  0  0  0  0  0
    7.3793    2.3598   -0.4187 F   0  0  0  0  0  0  0  0  0  0  0  0
    6.8048    0.1216   -0.9338 C   0  0  0  0  0  0  0  0  0  0  0  0
    5.9621    0.1130    0.1624 C   0  0  0  0  0  0  0  0  0  0  0  0
    4.0203    1.5390    0.4154 H   0  0  0  0  0  0  0  0  0  0  0  0
    1.7990    0.8315    2.2727 H   0  0  0  0  0  0  0  0  0  0  0  0
    1.8547    2.1925    1.1157 H   0  0  0  0  0  0  0  0  0  0  0  0
    3.1404    0.9870    4.3797 H   0  0  0  0  0  0  0  0  0  0  0  0
    6.5136    2.6595    6.1990 H   0  0  0  0  0  0  0  0  0  0  0  0
    8.2311    3.7412    7.5911 H   0  0  0  0  0  0  0  0  0  0  0  0
    8.4630    6.2136    7.5947 H   0  0  0  0  0  0  0  0  0  0  0  0
    6.9262    7.5994    6.2298 H   0  0  0  0  0  0  0  0  0  0  0  0
    5.1923    6.5464    4.8515 H   0  0  0  0  0  0  0  0  0  0  0  0
    4.8024    5.2675    2.8677 H   0  0  0  0  0  0  0  0  0  0  0  0
    4.1925   -2.6377   -0.6823 H   0  0  0  0  0  0  0  0  0  0  0  0
    9.1558    0.2805   -3.9817 H   0  0  0  0  0  0  0  0  0  0  0  0
    8.8796    2.2982   -2.5080 H   0  0  0  0  0  0  0  0  0  0  0  0
    6.0262    0.8949    0.9134 H   0  0  0  0  0  0  0  0  0  0  0  0
  1  2  2  0  0  0  0
  2  3  1  0  0  0  0
  2 17  1  0  0  0  0
  3  4  1  0  0  0  0
  3 29  1  0  0  0  0
  4  5  1  0  0  0  0
  4 30  1  0  0  0  0
  4 31  1  0  0  0  0
  5  6  2  0  0  0  0
  5 16  1  0  0  0  0
  6  7  1  0  0  0  0
  6 32  1  0  0  0  0
  7  8  2  0  0  0  0
  8  9  1  0  0  0  0
  8 15  1  0  0  0  0
  9 10  2  0  0  0  0
  9 14  1  0  0  0  0
 10 11  1  0  0  0  0
 10 33  1  0  0  0  0
 11 12  2  0  0  0  0
 11 34  1  0  0  0  0
 12 13  1  0  0  0  0
 12 35  1  0  0  0  0
 13 14  2  0  0  0  0
 13 36  1  0  0  0  0
 14 37  1  0  0  0  0
 15 16  2  0  0  0  0
 15 38  1  0  0  0  0
 17 18  2  0  0  0  0
 17 28  1  0  0  0  0
 18 19  1  0  0  0  0
 18 39  1  0  0  0  0
 19 20  2  0  0  0  0
 20 21  1  0  0  0  0
 20 27  1  0  0  0  0
 21 22  1  0  0  0  0
 21 23  2  0  0  0  0
 23 24  1  0  0  0  0
 23 40  1  0  0  0  0
 24 25  2  0  0  0  0
 24 41  1  0  0  0  0
 25 26  1  0  0  0  0
 25 27  1  0  0  0  0
 27 28  2  0  0  0  0
 28 42  1  0  0  0  0
M  END
$$$$
