
 OpenBabel01122422483D

 40 43  0  0  0  0  0  0  0  0999 V2000
    1.0093    0.2206   -0.2380 O   0  0  0  0  0  0  0  0  0  0  0  0
    2.2187    0.0475   -0.1427 C   0  0  0  0  0  0  0  0  0  0  0  0
    2.9186   -0.9904   -0.7466 N   0  0  0  0  0  0  0  0  0  0  0  0
    2.3440   -2.0074   -1.5522 C   0  0  0  0  0  0  0  0  0  0  0  0
    1.0579   -1.9029   -2.0976 C   0  0  0  0  0  0  0  0  0  0  0  0
    0.5013   -2.9442   -2.8395 C   0  0  0  0  0  0  0  0  0  0  0  0
    1.2400   -4.1050   -3.0432 C   0  0  0  0  0  0  0  0  0  0  0  0
    0.6688   -5.2377   -3.7896 C   0  0  0  0  0  0  0  0  0  0  0  0
   -0.4548   -5.2027   -4.2756 O   0  0  0  0  0  0  0  0  0  0  0  0
    1.4797   -6.3355   -3.9008 N   0  0  0  0  0  0  0  0  0  0  0  0
    2.7388   -6.3807   -3.3738 C   0  0  0  0  0  0  0  0  0  0  0  0
    3.2907   -5.4137   -2.7211 N   0  0  0  0  0  0  0  0  0  0  0  0
    2.5351   -4.2382   -2.5350 C   0  0  0  0  0  0  0  0  0  0  0  0
    3.0860   -3.1738   -1.8016 C   0  0  0  0  0  0  0  0  0  0  0  0
    2.9940    0.9298    0.6923 C   0  0  0  0  0  0  0  0  0  0  0  0
    2.6739    1.5568    1.8816 C   0  0  0  0  0  0  0  0  0  0  0  0
    1.4900    1.2949    2.7178 C   0  0  0  0  0  0  0  0  0  0  0  0
    0.8227    0.1672    2.3701 F   0  0  0  0  0  0  0  0  0  0  0  0
    1.8398    1.1217    4.0198 F   0  0  0  0  0  0  0  0  0  0  0  0
    0.5917    2.3093    2.6826 F   0  0  0  0  0  0  0  0  0  0  0  0
    3.7474    2.4727    2.1030 C   0  0  0  0  0  0  0  0  0  0  0  0
    3.9384    3.4712    3.1693 C   0  0  0  0  0  0  0  0  0  0  0  0
    5.2346    3.8482    3.5574 C   0  0  0  0  0  0  0  0  0  0  0  0
    5.4392    4.7957    4.5674 C   0  0  0  0  0  0  0  0  0  0  0  0
    4.3512    5.3822    5.2096 C   0  0  0  0  0  0  0  0  0  0  0  0
    3.0608    5.0328    4.8293 C   0  0  0  0  0  0  0  0  0  0  0  0
    2.8572    4.0967    3.8089 C   0  0  0  0  0  0  0  0  0  0  0  0
    4.6847    2.3086    1.1492 N   0  0  0  0  0  0  0  0  0  0  0  0
    4.2135    1.3491    0.2797 O   0  0  0  0  0  0  0  0  0  0  0  0
    3.8917   -1.1032   -0.4858 H   0  0  0  0  0  0  0  0  0  0  0  0
    0.4499   -1.0124   -1.9738 H   0  0  0  0  0  0  0  0  0  0  0  0
   -0.5047   -2.8475   -3.2409 H   0  0  0  0  0  0  0  0  0  0  0  0
    1.0957   -7.1213   -4.4059 H   0  0  0  0  0  0  0  0  0  0  0  0
    3.2619   -7.3332   -3.5541 H   0  0  0  0  0  0  0  0  0  0  0  0
    4.0895   -3.2943   -1.4021 H   0  0  0  0  0  0  0  0  0  0  0  0
    6.1050    3.4100    3.0722 H   0  0  0  0  0  0  0  0  0  0  0  0
    6.4511    5.0771    4.8493 H   0  0  0  0  0  0  0  0  0  0  0  0
    4.5095    6.1155    5.9953 H   0  0  0  0  0  0  0  0  0  0  0  0
    2.2063    5.4948    5.3184 H   0  0  0  0  0  0  0  0  0  0  0  0
    1.8297    3.9010    3.5252 H   0  0  0  0  0  0  0  0  0  0  0  0
  1  2  2  0  0  0  0
  2  3  1  0  0  0  0
  2 15  1  0  0  0  0
  3  4  1  0  0  0  0
  3 30  1  0  0  0  0
  4  5  2  0  0  0  0
  4 14  1  0  0  0  0
  5  6  1  0  0  0  0
  5 31  1  0  0  0  0
  6  7  2  0  0  0  0
  6 32  1  0  0  0  0
  7  8  1  0  0  0  0
  7 13  1  0  0  0  0
  8  9  2  0  0  0  0
  8 10  1  0  0  0  0
 10 11  1  0  0  0  0
 10 33  1  0  0  0  0
 11 12  2  0  0  0  0
 11 34  1  0  0  0  0
 12 13  1  0  0  0  0
 13 14  2  0  0  0  0
 14 35  1  0  0  0  0
 15 16  2  0  0  0  0
 15 29  1  0  0  0  0
 16 17  1  0  0  0  0
 16 21  1  0  0  0  0
 17 18  1  0  0  0  0
 17 19  1  0  0  0  0
 17 20  1  0  0  0  0
 21 22  1  0  0  0  0
 21 28  2  0  0  0  0
 22 23  2  0  0  0  0
 22 27  1  0  0  0  0
 23 24  1  0  0  0  0
 23 36  1  0  0  0  0
 24 25  2  0  0  0  0
 24 37  1  0  0  0  0
 25 26  1  0  0  0  0
 25 38  1  0  0  0  0
 26 27  2  0  0  0  0
 26 39  1  0  0  0  0
 27 40  1  0  0  0  0
 28 29  1  0  0  0  0
M  END
$$$$
