
 OpenBabel01122422483D

 49 52  0  0  0  0  0  0  0  0999 V2000
    1.1412    0.4268    0.4444 O   0  0  0  0  0  0  0  0  0  0  0  0
    2.1983   -0.0603    0.0506 C   0  0  0  0  0  0  0  0  0  0  0  0
    2.6986   -1.3075    0.3700 N   0  0  0  0  0  0  0  0  0  0  0  0
    2.0459   -2.2704    1.1741 C   0  0  0  0  0  0  0  0  0  0  0  0
    0.6895   -2.1950    1.5088 C   0  0  0  0  0  0  0  0  0  0  0  0
    0.0992   -3.1571    2.3296 C   0  0  0  0  0  0  0  0  0  0  0  0
    0.8606   -4.2079    2.8276 C   0  0  0  0  0  0  0  0  0  0  0  0
    2.2088   -4.3045    2.4906 C   0  0  0  0  0  0  0  0  0  0  0  0
    2.7973   -3.3470    1.6571 C   0  0  0  0  0  0  0  0  0  0  0  0
    3.0570    0.7765   -0.8321 C   0  0  0  0  0  0  0  0  0  0  0  0
    2.6783    2.0769   -1.1091 C   0  0  0  0  0  0  0  0  0  0  0  0
    3.4665    2.8231   -1.9767 C   0  0  0  0  0  0  0  0  0  0  0  0
    4.6032    2.2609   -2.5380 C   0  0  0  0  0  0  0  0  0  0  0  0
    5.3834    2.9216   -3.4557 N   0  0  0  0  0  0  0  0  0  0  0  0
    5.2079    4.3228   -3.7975 C   0  0  0  0  0  0  0  0  0  0  0  0
    6.1768    4.8922   -4.7820 C   0  0  0  0  0  0  0  0  0  0  0  0
    6.9014    5.9783   -4.4818 N   0  0  0  0  0  0  0  0  0  0  0  0
    7.6709    6.2351   -5.6021 O   0  0  0  0  0  0  0  0  0  0  0  0
    7.4107    5.3011   -6.5547 C   0  0  0  0  0  0  0  0  0  0  0  0
    8.1754    5.4071   -7.8126 C   0  0  0  0  0  0  0  0  0  0  0  0
    7.4009    6.2018   -8.7018 O   0  0  0  0  0  0  0  0  0  0  0  0
    7.9025    6.3871   -9.9627 C   0  0  0  0  0  0  0  0  0  0  0  0
    9.1189    5.8863  -10.4347 C   0  0  0  0  0  0  0  0  0  0  0  0
    9.5183    6.1337  -11.7535 C   0  0  0  0  0  0  0  0  0  0  0  0
    8.7111    6.8836  -12.6069 C   0  0  0  0  0  0  0  0  0  0  0  0
    7.5004    7.3916  -12.1426 C   0  0  0  0  0  0  0  0  0  0  0  0
    7.1065    7.1417  -10.8305 C   0  0  0  0  0  0  0  0  0  0  0  0
    5.9339    7.6391  -10.4085 F   0  0  0  0  0  0  0  0  0  0  0  0
    6.4585    4.4284   -6.0868 C   0  0  0  0  0  0  0  0  0  0  0  0
    4.9467    0.9914   -2.2155 N   0  0  0  0  0  0  0  0  0  0  0  0
    4.1729    0.2313   -1.3563 N   0  0  0  0  0  0  0  0  0  0  0  0
    3.6405   -1.5154    0.0574 H   0  0  0  0  0  0  0  0  0  0  0  0
    0.0529   -1.4022    1.1301 H   0  0  0  0  0  0  0  0  0  0  0  0
   -0.9573   -3.0756    2.5758 H   0  0  0  0  0  0  0  0  0  0  0  0
    0.4002   -4.9495    3.4771 H   0  0  0  0  0  0  0  0  0  0  0  0
    2.8050   -5.1235    2.8839 H   0  0  0  0  0  0  0  0  0  0  0  0
    3.8534   -3.4407    1.4185 H   0  0  0  0  0  0  0  0  0  0  0  0
    1.7845    2.5065   -0.6696 H   0  0  0  0  0  0  0  0  0  0  0  0
    3.1635    3.8404   -2.1960 H   0  0  0  0  0  0  0  0  0  0  0  0
    6.2552    2.4615   -3.6862 H   0  0  0  0  0  0  0  0  0  0  0  0
    5.2370    4.9288   -2.8823 H   0  0  0  0  0  0  0  0  0  0  0  0
    4.2072    4.4527   -4.2326 H   0  0  0  0  0  0  0  0  0  0  0  0
    8.3214    4.4006   -8.2263 H   0  0  0  0  0  0  0  0  0  0  0  0
    9.1488    5.8754   -7.6201 H   0  0  0  0  0  0  0  0  0  0  0  0
    9.7848    5.3007   -9.8093 H   0  0  0  0  0  0  0  0  0  0  0  0
   10.4663    5.7377  -12.1131 H   0  0  0  0  0  0  0  0  0  0  0  0
    9.0256    7.0723  -13.6304 H   0  0  0  0  0  0  0  0  0  0  0  0
    6.8585    7.9796  -12.7909 H   0  0  0  0  0  0  0  0  0  0  0  0
    6.0342    3.5808   -6.6027 H   0  0  0  0  0  0  0  0  0  0  0  0
  1  2  2  0  0  0  0
  2  3  1  0  0  0  0
  2 10  1  0  0  0  0
  3  4  1  0  0  0  0
  3 32  1  0  0  0  0
  4  5  2  0  0  0  0
  4  9  1  0  0  0  0
  5  6  1  0  0  0  0
  5 33  1  0  0  0  0
  6  7  2  0  0  0  0
  6 34  1  0  0  0  0
  7  8  1  0  0  0  0
  7 35  1  0  0  0  0
  8  9  2  0  0  0  0
  8 36  1  0  0  0  0
  9 37  1  0  0  0  0
 10 11  2  0  0  0  0
 10 31  1  0  0  0  0
 11 12  1  0  0  0  0
 11 38  1  0  0  0  0
 12 13  2  0  0  0  0
 12 39  1  0  0  0  0
 13 14  1  0  0  0  0
 13 30  1  0  0  0  0
 14 15  1  0  0  0  0
 14 40  1  0  0  0  0
 15 16  1  0  0  0  0
 15 41  1  0  0  0  0
 15 42  1  0  0  0  0
 16 17  2  0  0  0  0
 16 29  1  0  0  0  0
 17 18  1  0  0  0  0
 18 19  1  0  0  0  0
 19 20  1  0  0  0  0
 19 29  2  0  0  0  0
 20 21  1  0  0  0  0
 20 43  1  0  0  0  0
 20 44  1  0  0  0  0
 21 22  1  0  0  0  0
 22 23  2  0  0  0  0
 22 27  1  0  0  0  0
 23 24  1  0  0  0  0
 23 45  1  0  0  0  0
 24 25  2  0  0  0  0
 24 46  1  0  0  0  0
 25 26  1  0  0  0  0
 25 47  1  0  0  0  0
 26 27  2  0  0  0  0
 26 48  1  0  0  0  0
 27 28  1  0  0  0  0
 29 49  1  0  0  0  0
 30 31  2  0  0  0  0
M  END
$$$$
