
 OpenBabel01122422483D

 59 62  0  0  0  0  0  0  0  0999 V2000
   -4.7836    2.6574   -8.0847 C   0  0  0  0  0  0  0  0  0  0  0  0
   -4.6469    1.5398   -7.1352 C   0  0  0  0  0  0  0  0  0  0  0  0
   -5.5499    0.8563   -6.3662 C   0  0  0  0  0  0  0  0  0  0  0  0
   -4.7688   -0.0978   -5.6852 C   0  0  0  0  0  0  0  0  0  0  0  0
   -5.2670   -1.0909   -4.7864 N   0  0  0  0  0  0  0  0  0  0  0  0
   -6.5196   -1.6558   -4.9054 C   0  0  0  0  0  0  0  0  0  0  0  0
   -7.3950   -1.6927   -6.1090 C   0  0  0  0  0  0  0  0  0  0  0  0
   -6.8078   -2.2547   -3.7118 C   0  0  0  0  0  0  0  0  0  0  0  0
   -5.6465   -2.3676   -2.9104 C   0  0  0  0  0  0  0  0  0  0  0  0
   -5.4465   -3.0956   -1.6130 C   0  0  0  0  0  0  0  0  0  0  0  0
   -4.3158   -3.1740   -1.1241 O   0  0  0  0  0  0  0  0  0  0  0  0
   -6.5253   -3.6793   -0.8942 N   0  0  0  0  0  0  0  0  0  0  0  0
   -6.2318   -4.5194    0.2862 C   0  0  0  0  0  0  0  0  0  0  0  0
   -5.6906   -3.9133    1.5882 C   0  0  0  0  0  0  0  0  0  0  0  0
   -4.7955   -2.8994    1.4873 N   0  0  0  0  0  0  0  0  0  0  0  0
   -5.9359   -4.3995    2.6908 O   0  0  0  0  0  0  0  0  0  0  0  0
   -7.8505   -3.9172   -1.4518 C   0  0  0  0  0  0  0  0  0  0  0  0
   -8.8145   -2.7515   -1.3712 C   0  0  0  0  0  0  0  0  0  0  0  0
   -8.4217   -1.4516   -1.0260 C   0  0  0  0  0  0  0  0  0  0  0  0
   -9.2626   -0.3609   -1.2765 C   0  0  0  0  0  0  0  0  0  0  0  0
  -10.5351   -0.5330   -1.8422 C   0  0  0  0  0  0  0  0  0  0  0  0
  -11.3930    0.6195   -2.2012 C   0  0  0  0  0  0  0  0  0  0  0  0
  -10.8529    1.8183   -2.7043 C   0  0  0  0  0  0  0  0  0  0  0  0
  -11.6805    2.8869   -3.0768 C   0  0  0  0  0  0  0  0  0  0  0  0
  -13.0592    2.7844   -2.9561 C   0  0  0  0  0  0  0  0  0  0  0  0
  -13.6170    1.6082   -2.4651 C   0  0  0  0  0  0  0  0  0  0  0  0
  -12.7925    0.5438   -2.0857 C   0  0  0  0  0  0  0  0  0  0  0  0
  -10.9520   -1.8522   -2.0924 C   0  0  0  0  0  0  0  0  0  0  0  0
  -10.1129   -2.9442   -1.8574 C   0  0  0  0  0  0  0  0  0  0  0  0
   -4.6797   -1.6155   -3.6191 C   0  0  0  0  0  0  0  0  0  0  0  0
   -3.2761   -1.2468   -3.2445 C   0  0  0  0  0  0  0  0  0  0  0  0
   -3.4680    0.0204   -5.9610 N   0  0  0  0  0  0  0  0  0  0  0  0
   -3.3991    1.0366   -6.9169 O   0  0  0  0  0  0  0  0  0  0  0  0
   -5.7879    3.0900   -8.0155 H   0  0  0  0  0  0  0  0  0  0  0  0
   -4.6354    2.3132   -9.1109 H   0  0  0  0  0  0  0  0  0  0  0  0
   -4.0610    3.4441   -7.8606 H   0  0  0  0  0  0  0  0  0  0  0  0
   -6.6133    1.0367   -6.2960 H   0  0  0  0  0  0  0  0  0  0  0  0
   -7.0308   -1.1327   -6.9677 H   0  0  0  0  0  0  0  0  0  0  0  0
   -8.3997   -1.3375   -5.8555 H   0  0  0  0  0  0  0  0  0  0  0  0
   -7.4891   -2.7360   -6.4353 H   0  0  0  0  0  0  0  0  0  0  0  0
   -7.7984   -2.6382   -3.5703 H   0  0  0  0  0  0  0  0  0  0  0  0
   -5.5700   -5.3323   -0.0265 H   0  0  0  0  0  0  0  0  0  0  0  0
   -7.1763   -4.9759    0.6093 H   0  0  0  0  0  0  0  0  0  0  0  0
   -4.2881   -2.8007    0.6079 H   0  0  0  0  0  0  0  0  0  0  0  0
   -4.2931   -2.6803    2.3375 H   0  0  0  0  0  0  0  0  0  0  0  0
   -8.3230   -4.7815   -0.9720 H   0  0  0  0  0  0  0  0  0  0  0  0
   -7.7181   -4.2564   -2.4845 H   0  0  0  0  0  0  0  0  0  0  0  0
   -7.4246   -1.2504   -0.6406 H   0  0  0  0  0  0  0  0  0  0  0  0
   -8.8860    0.6353   -1.0527 H   0  0  0  0  0  0  0  0  0  0  0  0
   -9.7791    1.9298   -2.8329 H   0  0  0  0  0  0  0  0  0  0  0  0
  -11.2334    3.8064   -3.4541 H   0  0  0  0  0  0  0  0  0  0  0  0
  -13.6959    3.6141   -3.2510 H   0  0  0  0  0  0  0  0  0  0  0  0
  -14.6956    1.5098   -2.3754 H   0  0  0  0  0  0  0  0  0  0  0  0
  -13.2638   -0.3527   -1.6893 H   0  0  0  0  0  0  0  0  0  0  0  0
  -11.9278   -2.0486   -2.5319 H   0  0  0  0  0  0  0  0  0  0  0  0
  -10.4592   -3.9400   -2.1276 H   0  0  0  0  0  0  0  0  0  0  0  0
   -2.9573   -1.6820   -2.2970 H   0  0  0  0  0  0  0  0  0  0  0  0
   -3.1848   -0.1598   -3.1352 H   0  0  0  0  0  0  0  0  0  0  0  0
   -2.5672   -1.5846   -4.0067 H   0  0  0  0  0  0  0  0  0  0  0  0
  1  2  1  0  0  0  0
  1 34  1  0  0  0  0
  1 35  1  0  0  0  0
  1 36  1  0  0  0  0
  2  3  2  0  0  0  0
  2 33  1  0  0  0  0
  3  4  1  0  0  0  0
  3 37  1  0  0  0  0
  4  5  1  0  0  0  0
  4 32  2  0  0  0  0
  5  6  1  0  0  0  0
  5 30  1  0  0  0  0
  6  7  1  0  0  0  0
  6  8  2  0  0  0  0
  7 38  1  0  0  0  0
  7 39  1  0  0  0  0
  7 40  1  0  0  0  0
  8  9  1  0  0  0  0
  8 41  1  0  0  0  0
  9 10  1  0  0  0  0
  9 30  2  0  0  0  0
 10 11  2  0  0  0  0
 10 12  1  0  0  0  0
 12 13  1  0  0  0  0
 12 17  1  0  0  0  0
 13 14  1  0  0  0  0
 13 42  1  0  0  0  0
 13 43  1  0  0  0  0
 14 15  1  0  0  0  0
 14 16  2  0  0  0  0
 15 44  1  0  0  0  0
 15 45  1  0  0  0  0
 17 18  1  0  0  0  0
 17 46  1  0  0  0  0
 17 47  1  0  0  0  0
 18 19  2  0  0  0  0
 18 29  1  0  0  0  0
 19 20  1  0  0  0  0
 19 48  1  0  0  0  0
 20 21  2  0  0  0  0
 20 49  1  0  0  0  0
 21 22  1  0  0  0  0
 21 28  1  0  0  0  0
 22 23  2  0  0  0  0
 22 27  1  0  0  0  0
 23 24  1  0  0  0  0
 23 50  1  0  0  0  0
 24 25  2  0  0  0  0
 24 51  1  0  0  0  0
 25 26  1  0  0  0  0
 25 52  1  0  0  0  0
 26 27  2  0  0  0  0
 26 53  1  0  0  0  0
 27 54  1  0  0  0  0
 28 29  2  0  0  0  0
 28 55  1  0  0  0  0
 29 56  1  0  0  0  0
 30 31  1  0  0  0  0
 31 57  1  0  0  0  0
 31 58  1  0  0  0  0
 31 59  1  0  0  0  0
 32 33  1  0  0  0  0
M  END
$$$$
