
 OpenBabel01122422453D

 49 52  0  0  0  0  0  0  0  0999 V2000
    0.9349   -0.3193   -0.1992 O   0  0  0  0  0  0  0  0  0  0  0  0
    2.1298   -0.0678   -0.0723 C   0  0  0  0  0  0  0  0  0  0  0  0
    2.8345    0.8713   -0.8094 N   0  0  0  0  0  0  0  0  0  0  0  0
    2.1999    1.6517   -1.8050 C   0  0  0  0  0  0  0  0  0  0  0  0
    1.1086    2.4498   -1.4350 C   0  0  0  0  0  0  0  0  0  0  0  0
    0.5128    3.3070   -2.3607 C   0  0  0  0  0  0  0  0  0  0  0  0
    0.9934    3.3710   -3.6662 C   0  0  0  0  0  0  0  0  0  0  0  0
    2.0720    2.5702   -4.0476 C   0  0  0  0  0  0  0  0  0  0  0  0
    2.6797    1.7041   -3.1279 C   0  0  0  0  0  0  0  0  0  0  0  0
    3.7667    0.8359   -3.6504 C   0  0  0  0  0  0  0  0  0  0  0  0
    4.5032    1.2423   -4.5512 O   0  0  0  0  0  0  0  0  0  0  0  0
    3.8675   -0.4278   -3.1017 N   0  0  0  0  0  0  0  0  0  0  0  0
    4.8186   -1.3898   -3.6062 C   0  0  0  0  0  0  0  0  0  0  0  0
    4.2095   -2.2833   -4.6526 C   0  0  0  0  0  0  0  0  0  0  0  0
    4.2574   -1.9156   -6.0051 C   0  0  0  0  0  0  0  0  0  0  0  0
    3.7497   -2.7638   -6.9884 C   0  0  0  0  0  0  0  0  0  0  0  0
    3.1807   -3.9840   -6.6279 C   0  0  0  0  0  0  0  0  0  0  0  0
    3.0841   -4.3378   -5.2831 C   0  0  0  0  0  0  0  0  0  0  0  0
    3.5861   -3.4871   -4.2967 C   0  0  0  0  0  0  0  0  0  0  0  0
    2.9559   -0.8958    0.8374 C   0  0  0  0  0  0  0  0  0  0  0  0
    4.0038   -0.3208    1.5511 C   0  0  0  0  0  0  0  0  0  0  0  0
    4.7592   -1.1476    2.3556 C   0  0  0  0  0  0  0  0  0  0  0  0
    4.5462   -2.4751    2.4777 N   0  0  0  0  0  0  0  0  0  0  0  0
    3.5053   -3.0159    1.7876 C   0  0  0  0  0  0  0  0  0  0  0  0
    3.3155   -4.4662    1.9334 C   0  0  0  0  0  0  0  0  0  0  0  0
    2.3240   -5.1367    1.3174 N   0  0  0  0  0  0  0  0  0  0  0  0
    2.4848   -6.4114    1.7059 N   0  0  0  0  0  0  0  0  0  0  0  0
    3.5557   -6.6046    2.5227 C   0  0  0  0  0  0  0  0  0  0  0  0
    4.1176   -5.3639    2.6960 C   0  0  0  0  0  0  0  0  0  0  0  0
    2.6790   -2.2576    0.9699 C   0  0  0  0  0  0  0  0  0  0  0  0
    3.8243    0.6839   -0.9509 H   0  0  0  0  0  0  0  0  0  0  0  0
    0.7357    2.4336   -0.4136 H   0  0  0  0  0  0  0  0  0  0  0  0
   -0.3251    3.9309   -2.0595 H   0  0  0  0  0  0  0  0  0  0  0  0
    0.5260    4.0320   -4.3903 H   0  0  0  0  0  0  0  0  0  0  0  0
    2.4267    2.6084   -5.0773 H   0  0  0  0  0  0  0  0  0  0  0  0
    3.0469   -0.7920   -2.6303 H   0  0  0  0  0  0  0  0  0  0  0  0
    5.1631   -1.9884   -2.7563 H   0  0  0  0  0  0  0  0  0  0  0  0
    5.7006   -0.8781   -4.0100 H   0  0  0  0  0  0  0  0  0  0  0  0
    4.7006   -0.9638   -6.2959 H   0  0  0  0  0  0  0  0  0  0  0  0
    3.8046   -2.4743   -8.0339 H   0  0  0  0  0  0  0  0  0  0  0  0
    2.8080   -4.6562   -7.3962 H   0  0  0  0  0  0  0  0  0  0  0  0
    2.6227   -5.2811   -5.0025 H   0  0  0  0  0  0  0  0  0  0  0  0
    3.5008   -3.7770   -3.2522 H   0  0  0  0  0  0  0  0  0  0  0  0
    4.2157    0.7414    1.5055 H   0  0  0  0  0  0  0  0  0  0  0  0
    5.5881   -0.7564    2.9421 H   0  0  0  0  0  0  0  0  0  0  0  0
    1.8217   -7.1020    1.3697 H   0  0  0  0  0  0  0  0  0  0  0  0
    3.8147   -7.5821    2.9030 H   0  0  0  0  0  0  0  0  0  0  0  0
    4.9886   -5.1175    3.2881 H   0  0  0  0  0  0  0  0  0  0  0  0
    1.8515   -2.7157    0.4345 H   0  0  0  0  0  0  0  0  0  0  0  0
  1  2  2  0  0  0  0
  2  3  1  0  0  0  0
  2 20  1  0  0  0  0
  3  4  1  0  0  0  0
  3 31  1  0  0  0  0
  4  5  2  0  0  0  0
  4  9  1  0  0  0  0
  5  6  1  0  0  0  0
  5 32  1  0  0  0  0
  6  7  2  0  0  0  0
  6 33  1  0  0  0  0
  7  8  1  0  0  0  0
  7 34  1  0  0  0  0
  8  9  2  0  0  0  0
  8 35  1  0  0  0  0
  9 10  1  0  0  0  0
 10 11  2  0  0  0  0
 10 12  1  0  0  0  0
 12 13  1  0  0  0  0
 12 36  1  0  0  0  0
 13 14  1  0  0  0  0
 13 37  1  0  0  0  0
 13 38  1  0  0  0  0
 14 15  2  0  0  0  0
 14 19  1  0  0  0  0
 15 16  1  0  0  0  0
 15 39  1  0  0  0  0
 16 17  2  0  0  0  0
 16 40  1  0  0  0  0
 17 18  1  0  0  0  0
 17 41  1  0  0  0  0
 18 19  2  0  0  0  0
 18 42  1  0  0  0  0
 19 43  1  0  0  0  0
 20 21  2  0  0  0  0
 20 30  1  0  0  0  0
 21 22  1  0  0  0  0
 21 44  1  0  0  0  0
 22 23  2  0  0  0  0
 22 45  1  0  0  0  0
 23 24  1  0  0  0  0
 24 25  1  0  0  0  0
 24 30  2  0  0  0  0
 25 26  2  0  0  0  0
 25 29  1  0  0  0  0
 26 27  1  0  0  0  0
 27 28  1  0  0  0  0
 27 46  1  0  0  0  0
 28 29  2  0  0  0  0
 28 47  1  0  0  0  0
 29 48  1  0  0  0  0
 30 49  1  0  0  0  0
M  END
$$$$
