
 OpenBabel01122422483D

 45 48  0  0  0  0  0  0  0  0999 V2000
    0.6913   -0.1732   -0.2898 C   0  0  0  0  0  0  0  0  0  0  0  0
    1.8456   -0.6317   -0.9858 O   0  0  0  0  0  0  0  0  0  0  0  0
    2.6887    0.3318   -1.4707 C   0  0  0  0  0  0  0  0  0  0  0  0
    2.4621    1.7064   -1.4194 C   0  0  0  0  0  0  0  0  0  0  0  0
    3.3997    2.5856   -1.9514 C   0  0  0  0  0  0  0  0  0  0  0  0
    4.5727    2.0929   -2.5214 C   0  0  0  0  0  0  0  0  0  0  0  0
    4.8510    0.7127   -2.5552 C   0  0  0  0  0  0  0  0  0  0  0  0
    6.1574    0.2278   -3.0304 C   0  0  0  0  0  0  0  0  0  0  0  0
    7.3191    0.9377   -2.7809 C   0  0  0  0  0  0  0  0  0  0  0  0
    8.5487    0.5489   -3.1437 N   0  0  0  0  0  0  0  0  0  0  0  0
    8.6311   -0.6280   -3.7904 C   0  0  0  0  0  0  0  0  0  0  0  0
   10.0148   -1.0793   -4.1398 C   0  0  0  0  0  0  0  0  0  0  0  0
   10.9766   -0.4131   -3.7522 O   0  0  0  0  0  0  0  0  0  0  0  0
   10.0949   -2.2269   -4.9220 N   0  0  0  0  0  0  0  0  0  0  0  0
   11.2999   -2.7750   -5.3272 C   0  0  0  0  0  0  0  0  0  0  0  0
   12.5474   -2.4638   -4.8491 C   0  0  0  0  0  0  0  0  0  0  0  0
   13.4725   -3.1969   -5.5464 N   0  0  0  0  0  0  0  0  0  0  0  0
   14.8863   -3.1725   -5.4126 C   0  0  0  0  0  0  0  0  0  0  0  0
   15.6800   -3.8594   -6.3446 C   0  0  0  0  0  0  0  0  0  0  0  0
   17.0743   -3.8304   -6.2417 C   0  0  0  0  0  0  0  0  0  0  0  0
   17.6901   -3.1244   -5.2088 C   0  0  0  0  0  0  0  0  0  0  0  0
   16.9100   -2.4476   -4.2758 C   0  0  0  0  0  0  0  0  0  0  0  0
   15.5202   -2.4729   -4.3799 C   0  0  0  0  0  0  0  0  0  0  0  0
   14.8389   -1.8240   -3.4258 F   0  0  0  0  0  0  0  0  0  0  0  0
   12.8574   -4.0020   -6.4625 N   0  0  0  0  0  0  0  0  0  0  0  0
   11.5523   -3.7577   -6.2994 C   0  0  0  0  0  0  0  0  0  0  0  0
    7.5876   -1.4214   -4.1181 N   0  0  0  0  0  0  0  0  0  0  0  0
    6.3733   -0.9643   -3.7143 C   0  0  0  0  0  0  0  0  0  0  0  0
    3.8723   -0.1553   -2.0430 C   0  0  0  0  0  0  0  0  0  0  0  0
    0.1478   -1.0496    0.0751 H   0  0  0  0  0  0  0  0  0  0  0  0
    0.0232    0.3796   -0.9587 H   0  0  0  0  0  0  0  0  0  0  0  0
    0.9690    0.4322    0.5799 H   0  0  0  0  0  0  0  0  0  0  0  0
    1.5689    2.1271   -0.9710 H   0  0  0  0  0  0  0  0  0  0  0  0
    3.2265    3.6582   -1.9109 H   0  0  0  0  0  0  0  0  0  0  0  0
    5.2794    2.8157   -2.9280 H   0  0  0  0  0  0  0  0  0  0  0  0
    7.3089    1.8786   -2.2357 H   0  0  0  0  0  0  0  0  0  0  0  0
    9.2270   -2.6230   -5.2662 H   0  0  0  0  0  0  0  0  0  0  0  0
   12.8418   -1.7626   -4.0854 H   0  0  0  0  0  0  0  0  0  0  0  0
   15.2256   -4.4101   -7.1666 H   0  0  0  0  0  0  0  0  0  0  0  0
   17.6817   -4.3581   -6.9738 H   0  0  0  0  0  0  0  0  0  0  0  0
   18.7738   -3.1037   -5.1279 H   0  0  0  0  0  0  0  0  0  0  0  0
   17.3716   -1.8990   -3.4594 H   0  0  0  0  0  0  0  0  0  0  0  0
   10.8450   -4.2870   -6.9239 H   0  0  0  0  0  0  0  0  0  0  0  0
    5.5444   -1.6201   -3.9724 H   0  0  0  0  0  0  0  0  0  0  0  0
    4.0342   -1.2317   -2.0375 H   0  0  0  0  0  0  0  0  0  0  0  0
  1  2  1  0  0  0  0
  1 30  1  0  0  0  0
  1 31  1  0  0  0  0
  1 32  1  0  0  0  0
  2  3  1  0  0  0  0
  3  4  2  0  0  0  0
  3 29  1  0  0  0  0
  4  5  1  0  0  0  0
  4 33  1  0  0  0  0
  5  6  2  0  0  0  0
  5 34  1  0  0  0  0
  6  7  1  0  0  0  0
  6 35  1  0  0  0  0
  7  8  1  0  0  0  0
  7 29  2  0  0  0  0
  8  9  2  0  0  0  0
  8 28  1  0  0  0  0
  9 10  1  0  0  0  0
  9 36  1  0  0  0  0
 10 11  2  0  0  0  0
 11 12  1  0  0  0  0
 11 27  1  0  0  0  0
 12 13  2  0  0  0  0
 12 14  1  0  0  0  0
 14 15  1  0  0  0  0
 14 37  1  0  0  0  0
 15 16  2  0  0  0  0
 15 26  1  0  0  0  0
 16 17  1  0  0  0  0
 16 38  1  0  0  0  0
 17 18  1  0  0  0  0
 17 25  1  0  0  0  0
 18 19  2  0  0  0  0
 18 23  1  0  0  0  0
 19 20  1  0  0  0  0
 19 39  1  0  0  0  0
 20 21  2  0  0  0  0
 20 40  1  0  0  0  0
 21 22  1  0  0  0  0
 21 41  1  0  0  0  0
 22 23  2  0  0  0  0
 22 42  1  0  0  0  0
 23 24  1  0  0  0  0
 25 26  2  0  0  0  0
 26 43  1  0  0  0  0
 27 28  2  0  0  0  0
 28 44  1  0  0  0  0
 29 45  1  0  0  0  0
M  END
$$$$
