
 OpenBabel01122422483D

 42 45  0  0  0  0  0  0  0  0999 V2000
    1.9515    0.6359    0.1559 O   0  0  0  0  0  0  0  0  0  0  0  0
    3.0333    0.1966   -0.2121 C   0  0  0  0  0  0  0  0  0  0  0  0
    3.2526   -0.5431   -1.3722 N   0  0  0  0  0  0  0  0  0  0  0  0
    2.3418   -0.8806   -2.3428 C   0  0  0  0  0  0  0  0  0  0  0  0
    1.1680   -0.2591   -2.5552 C   0  0  0  0  0  0  0  0  0  0  0  0
    0.3072   -0.6451   -3.5781 N   0  0  0  0  0  0  0  0  0  0  0  0
   -0.8688    0.1697   -3.8667 C   0  0  0  0  0  0  0  0  0  0  0  0
   -2.1297   -0.2624   -3.1629 C   0  0  0  0  0  0  0  0  0  0  0  0
   -2.9738   -1.2346   -3.7233 C   0  0  0  0  0  0  0  0  0  0  0  0
   -4.2028   -1.5275   -3.1276 C   0  0  0  0  0  0  0  0  0  0  0  0
   -4.5790   -0.8651   -1.9637 C   0  0  0  0  0  0  0  0  0  0  0  0
   -5.7758   -1.1199   -1.4186 F   0  0  0  0  0  0  0  0  0  0  0  0
   -3.7408    0.0660   -1.3681 C   0  0  0  0  0  0  0  0  0  0  0  0
   -2.5222    0.3567   -1.9712 C   0  0  0  0  0  0  0  0  0  0  0  0
   -1.7344    1.2864   -1.4132 F   0  0  0  0  0  0  0  0  0  0  0  0
    0.5823   -1.7277   -4.4069 C   0  0  0  0  0  0  0  0  0  0  0  0
   -0.1365   -2.1192   -5.3230 O   0  0  0  0  0  0  0  0  0  0  0  0
    1.8733   -2.4231   -4.1592 C   0  0  0  0  0  0  0  0  0  0  0  0
    2.7052   -1.9865   -3.2045 C   0  0  0  0  0  0  0  0  0  0  0  0
    4.2763    0.3750    0.6123 C   0  0  0  0  0  0  0  0  0  0  0  0
    4.1545    0.8486    1.8666 N   0  0  0  0  0  0  0  0  0  0  0  0
    5.2874    1.0148    2.6103 N   0  0  0  0  0  0  0  0  0  0  0  0
    6.4846    0.7328    2.0702 C   0  0  0  0  0  0  0  0  0  0  0  0
    7.6683    0.9240    2.7815 C   0  0  0  0  0  0  0  0  0  0  0  0
    8.9079    0.6573    2.2001 C   0  0  0  0  0  0  0  0  0  0  0  0
    8.9640    0.1861    0.8937 C   0  0  0  0  0  0  0  0  0  0  0  0
    7.7803   -0.0227    0.1856 C   0  0  0  0  0  0  0  0  0  0  0  0
    6.5412    0.2431    0.7528 C   0  0  0  0  0  0  0  0  0  0  0  0
    5.4419    0.0336    0.0143 N   0  0  0  0  0  0  0  0  0  0  0  0
    4.1903   -0.9305   -1.4506 H   0  0  0  0  0  0  0  0  0  0  0  0
    0.8550    0.5995   -1.9677 H   0  0  0  0  0  0  0  0  0  0  0  0
   -1.0537    0.1562   -4.9491 H   0  0  0  0  0  0  0  0  0  0  0  0
   -0.6460    1.2196   -3.6347 H   0  0  0  0  0  0  0  0  0  0  0  0
   -2.6902   -1.7455   -4.6427 H   0  0  0  0  0  0  0  0  0  0  0  0
   -4.8752   -2.2540   -3.5741 H   0  0  0  0  0  0  0  0  0  0  0  0
   -4.0401    0.5749   -0.4598 H   0  0  0  0  0  0  0  0  0  0  0  0
    2.0958   -3.2713   -4.7906 H   0  0  0  0  0  0  0  0  0  0  0  0
    3.6438   -2.5061   -3.0374 H   0  0  0  0  0  0  0  0  0  0  0  0
    7.6206    1.2960    3.8023 H   0  0  0  0  0  0  0  0  0  0  0  0
    9.8238    0.8229    2.7616 H   0  0  0  0  0  0  0  0  0  0  0  0
    9.9229   -0.0166    0.4226 H   0  0  0  0  0  0  0  0  0  0  0  0
    7.8292   -0.3894   -0.8377 H   0  0  0  0  0  0  0  0  0  0  0  0
  1  2  2  0  0  0  0
  2  3  1  0  0  0  0
  2 20  1  0  0  0  0
  3  4  1  0  0  0  0
  3 30  1  0  0  0  0
  4  5  2  0  0  0  0
  4 19  1  0  0  0  0
  5  6  1  0  0  0  0
  5 31  1  0  0  0  0
  6  7  1  0  0  0  0
  6 16  1  0  0  0  0
  7  8  1  0  0  0  0
  7 32  1  0  0  0  0
  7 33  1  0  0  0  0
  8  9  2  0  0  0  0
  8 14  1  0  0  0  0
  9 10  1  0  0  0  0
  9 34  1  0  0  0  0
 10 11  2  0  0  0  0
 10 35  1  0  0  0  0
 11 12  1  0  0  0  0
 11 13  1  0  0  0  0
 13 14  2  0  0  0  0
 13 36  1  0  0  0  0
 14 15  1  0  0  0  0
 16 17  2  0  0  0  0
 16 18  1  0  0  0  0
 18 19  2  0  0  0  0
 18 37  1  0  0  0  0
 19 38  1  0  0  0  0
 20 21  2  0  0  0  0
 20 29  1  0  0  0  0
 21 22  1  0  0  0  0
 22 23  2  0  0  0  0
 23 24  1  0  0  0  0
 23 28  1  0  0  0  0
 24 25  2  0  0  0  0
 24 39  1  0  0  0  0
 25 26  1  0  0  0  0
 25 40  1  0  0  0  0
 26 27  2  0  0  0  0
 26 41  1  0  0  0  0
 27 28  1  0  0  0  0
 27 42  1  0  0  0  0
 28 29  2  0  0  0  0
M  END
$$$$
