
 OpenBabel01122422453D

 46 49  0  0  0  0  0  0  0  0999 V2000
    0.9356   -0.0958    0.4348 O   0  0  0  0  0  0  0  0  0  0  0  0
    2.1432   -0.0250    0.2279 C   0  0  0  0  0  0  0  0  0  0  0  0
    2.8581    1.1243    0.4270 N   0  0  0  0  0  0  0  0  0  0  0  0
    2.2362    2.3607    0.8380 C   0  0  0  0  0  0  0  0  0  0  0  0
    3.1666    3.1625    1.7053 C   0  0  0  0  0  0  0  0  0  0  0  0
    3.1297    3.0246    3.0977 C   0  0  0  0  0  0  0  0  0  0  0  0
    4.0042    3.7527    3.9027 C   0  0  0  0  0  0  0  0  0  0  0  0
    4.9515    4.5987    3.3216 C   0  0  0  0  0  0  0  0  0  0  0  0
    5.0451    4.7126    1.9287 C   0  0  0  0  0  0  0  0  0  0  0  0
    6.1195    5.4716    1.3008 C   0  0  0  0  0  0  0  0  0  0  0  0
    6.7522    5.3806    0.0762 C   0  0  0  0  0  0  0  0  0  0  0  0
    7.7724    6.3597    0.0702 C   0  0  0  0  0  0  0  0  0  0  0  0
    7.6905    7.0012    1.2834 C   0  0  0  0  0  0  0  0  0  0  0  0
    6.6931    6.4694    2.0379 O   0  0  0  0  0  0  0  0  0  0  0  0
    4.1285    4.0076    1.1322 C   0  0  0  0  0  0  0  0  0  0  0  0
    2.9095   -1.1978   -0.2830 C   0  0  0  0  0  0  0  0  0  0  0  0
    2.2298   -2.3191   -0.5374 C   0  0  0  0  0  0  0  0  0  0  0  0
    2.8318   -3.4161   -1.0770 N   0  0  0  0  0  0  0  0  0  0  0  0
    4.1658   -3.4912   -1.4029 C   0  0  0  0  0  0  0  0  0  0  0  0
    4.5845   -4.5199   -1.9254 O   0  0  0  0  0  0  0  0  0  0  0  0
    4.9238   -2.3721   -1.0572 N   0  0  0  0  0  0  0  0  0  0  0  0
    6.3353   -2.4218   -1.2451 C   0  0  0  0  0  0  0  0  0  0  0  0
    6.8846   -2.7208   -2.4977 C   0  0  0  0  0  0  0  0  0  0  0  0
    8.2702   -2.7556   -2.6638 C   0  0  0  0  0  0  0  0  0  0  0  0
    9.1121   -2.5303   -1.5749 C   0  0  0  0  0  0  0  0  0  0  0  0
    8.5727   -2.2466   -0.3223 C   0  0  0  0  0  0  0  0  0  0  0  0
    7.1894   -2.1737   -0.1607 C   0  0  0  0  0  0  0  0  0  0  0  0
    4.3721   -1.1949   -0.5470 C   0  0  0  0  0  0  0  0  0  0  0  0
    5.0105   -0.1554   -0.3535 O   0  0  0  0  0  0  0  0  0  0  0  0
    3.8481    1.1404    0.1803 H   0  0  0  0  0  0  0  0  0  0  0  0
    1.2977    2.1593    1.3653 H   0  0  0  0  0  0  0  0  0  0  0  0
    1.9784    2.9206   -0.0689 H   0  0  0  0  0  0  0  0  0  0  0  0
    2.4198    2.3414    3.5610 H   0  0  0  0  0  0  0  0  0  0  0  0
    3.9658    3.6440    4.9836 H   0  0  0  0  0  0  0  0  0  0  0  0
    5.6434    5.1392    3.9642 H   0  0  0  0  0  0  0  0  0  0  0  0
    6.5260    4.6650   -0.7017 H   0  0  0  0  0  0  0  0  0  0  0  0
    8.4848    6.5626   -0.7165 H   0  0  0  0  0  0  0  0  0  0  0  0
    8.2475    7.8046    1.7433 H   0  0  0  0  0  0  0  0  0  0  0  0
    4.1705    4.1031    0.0493 H   0  0  0  0  0  0  0  0  0  0  0  0
    1.1603   -2.4111   -0.3559 H   0  0  0  0  0  0  0  0  0  0  0  0
    2.2925   -4.2526   -1.2810 H   0  0  0  0  0  0  0  0  0  0  0  0
    6.2425   -2.8967   -3.3570 H   0  0  0  0  0  0  0  0  0  0  0  0
    8.6927   -2.9604   -3.6438 H   0  0  0  0  0  0  0  0  0  0  0  0
   10.1906   -2.5769   -1.7030 H   0  0  0  0  0  0  0  0  0  0  0  0
    9.2269   -2.0844    0.5304 H   0  0  0  0  0  0  0  0  0  0  0  0
    6.7847   -1.9548    0.8241 H   0  0  0  0  0  0  0  0  0  0  0  0
  1  2  2  0  0  0  0
  2  3  1  0  0  0  0
  2 16  1  0  0  0  0
  3  4  1  0  0  0  0
  3 30  1  0  0  0  0
  4  5  1  0  0  0  0
  4 31  1  0  0  0  0
  4 32  1  0  0  0  0
  5  6  2  0  0  0  0
  5 15  1  0  0  0  0
  6  7  1  0  0  0  0
  6 33  1  0  0  0  0
  7  8  2  0  0  0  0
  7 34  1  0  0  0  0
  8  9  1  0  0  0  0
  8 35  1  0  0  0  0
  9 10  1  0  0  0  0
  9 15  2  0  0  0  0
 10 11  2  0  0  0  0
 10 14  1  0  0  0  0
 11 12  1  0  0  0  0
 11 36  1  0  0  0  0
 12 13  2  0  0  0  0
 12 37  1  0  0  0  0
 13 14  1  0  0  0  0
 13 38  1  0  0  0  0
 15 39  1  0  0  0  0
 16 17  2  0  0  0  0
 16 28  1  0  0  0  0
 17 18  1  0  0  0  0
 17 40  1  0  0  0  0
 18 19  1  0  0  0  0
 18 41  1  0  0  0  0
 19 20  2  0  0  0  0
 19 21  1  0  0  0  0
 21 22  1  0  0  0  0
 21 28  1  0  0  0  0
 22 23  2  0  0  0  0
 22 27  1  0  0  0  0
 23 24  1  0  0  0  0
 23 42  1  0  0  0  0
 24 25  2  0  0  0  0
 24 43  1  0  0  0  0
 25 26  1  0  0  0  0
 25 44  1  0  0  0  0
 26 27  2  0  0  0  0
 26 45  1  0  0  0  0
 27 46  1  0  0  0  0
 28 29  2  0  0  0  0
M  END
$$$$
