
 OpenBabel01122422483D

 41 44  0  0  0  0  0  0  0  0999 V2000
    0.9563   -0.1262   -0.0372 O   0  0  0  0  0  0  0  0  0  0  0  0
    2.1829   -0.1698   -0.0403 C   0  0  0  0  0  0  0  0  0  0  0  0
    2.9456   -0.9067   -1.1342 C   0  0  0  0  0  0  0  0  0  0  0  0
    2.7111   -0.3113   -2.4744 C   0  0  0  0  0  0  0  0  0  0  0  0
    1.5324   -0.1807   -3.1672 C   0  0  0  0  0  0  0  0  0  0  0  0
    1.8101    0.3801   -4.3760 O   0  0  0  0  0  0  0  0  0  0  0  0
    3.1700    0.5618   -4.3647 C   0  0  0  0  0  0  0  0  0  0  0  0
    3.7567    1.1272   -5.5816 C   0  0  0  0  0  0  0  0  0  0  0  0
    2.9567    1.5377   -6.6631 C   0  0  0  0  0  0  0  0  0  0  0  0
    3.5345    2.0560   -7.8260 C   0  0  0  0  0  0  0  0  0  0  0  0
    4.9160    2.1687   -7.9102 C   0  0  0  0  0  0  0  0  0  0  0  0
    5.4707    2.6592   -9.0263 F   0  0  0  0  0  0  0  0  0  0  0  0
    5.7305    1.7778   -6.8547 C   0  0  0  0  0  0  0  0  0  0  0  0
    5.1521    1.2596   -5.6907 C   0  0  0  0  0  0  0  0  0  0  0  0
    3.7524    0.1652   -3.2482 N   0  0  0  0  0  0  0  0  0  0  0  0
    3.0283    0.4198    0.8774 N   0  0  0  0  0  0  0  0  0  0  0  0
    2.5737    1.1511    1.9562 C   0  0  0  0  0  0  0  0  0  0  0  0
    1.3825    1.1113    2.5085 N   0  0  0  0  0  0  0  0  0  0  0  0
    1.5302    1.8379    3.6480 C   0  0  0  0  0  0  0  0  0  0  0  0
    2.7525    2.3241    3.8651 N   0  0  0  0  0  0  0  0  0  0  0  0
    3.3863    2.0066    2.7060 N   0  0  0  0  0  0  0  0  0  0  0  0
    4.6573    2.5586    2.4052 C   0  0  0  0  0  0  0  0  0  0  0  0
    5.4936    2.9919    3.4460 C   0  0  0  0  0  0  0  0  0  0  0  0
    6.7436    3.5436    3.1474 C   0  0  0  0  0  0  0  0  0  0  0  0
    7.1364    3.6906    1.8208 C   0  0  0  0  0  0  0  0  0  0  0  0
    8.3294    4.2275    1.5383 F   0  0  0  0  0  0  0  0  0  0  0  0
    6.3099    3.2932    0.7825 C   0  0  0  0  0  0  0  0  0  0  0  0
    5.0755    2.7302    1.0812 C   0  0  0  0  0  0  0  0  0  0  0  0
    4.2883    2.4094    0.0474 F   0  0  0  0  0  0  0  0  0  0  0  0
    2.6189   -1.9529   -1.1196 H   0  0  0  0  0  0  0  0  0  0  0  0
    4.0205   -0.9144   -0.9189 H   0  0  0  0  0  0  0  0  0  0  0  0
    0.4990   -0.4188   -2.9673 H   0  0  0  0  0  0  0  0  0  0  0  0
    1.8726    1.4557   -6.6099 H   0  0  0  0  0  0  0  0  0  0  0  0
    2.9155    2.3673   -8.6619 H   0  0  0  0  0  0  0  0  0  0  0  0
    6.8068    1.8766   -6.9403 H   0  0  0  0  0  0  0  0  0  0  0  0
    5.7938    0.9534   -4.8675 H   0  0  0  0  0  0  0  0  0  0  0  0
    4.0102    0.4825    0.6465 H   0  0  0  0  0  0  0  0  0  0  0  0
    0.7232    2.0048    4.3511 H   0  0  0  0  0  0  0  0  0  0  0  0
    5.1975    2.8853    4.4891 H   0  0  0  0  0  0  0  0  0  0  0  0
    7.4123    3.8653    3.9408 H   0  0  0  0  0  0  0  0  0  0  0  0
    6.6099    3.4348   -0.2495 H   0  0  0  0  0  0  0  0  0  0  0  0
  1  2  2  0  0  0  0
  2  3  1  0  0  0  0
  2 16  1  0  0  0  0
  3  4  1  0  0  0  0
  3 30  1  0  0  0  0
  3 31  1  0  0  0  0
  4  5  2  0  0  0  0
  4 15  1  0  0  0  0
  5  6  1  0  0  0  0
  5 32  1  0  0  0  0
  6  7  1  0  0  0  0
  7  8  1  0  0  0  0
  7 15  2  0  0  0  0
  8  9  2  0  0  0  0
  8 14  1  0  0  0  0
  9 10  1  0  0  0  0
  9 33  1  0  0  0  0
 10 11  2  0  0  0  0
 10 34  1  0  0  0  0
 11 12  1  0  0  0  0
 11 13  1  0  0  0  0
 13 14  2  0  0  0  0
 13 35  1  0  0  0  0
 14 36  1  0  0  0  0
 16 17  1  0  0  0  0
 16 37  1  0  0  0  0
 17 18  2  0  0  0  0
 17 21  1  0  0  0  0
 18 19  1  0  0  0  0
 19 20  2  0  0  0  0
 19 38  1  0  0  0  0
 20 21  1  0  0  0  0
 21 22  1  0  0  0  0
 22 23  2  0  0  0  0
 22 28  1  0  0  0  0
 23 24  1  0  0  0  0
 23 39  1  0  0  0  0
 24 25  2  0  0  0  0
 24 40  1  0  0  0  0
 25 26  1  0  0  0  0
 25 27  1  0  0  0  0
 27 28  2  0  0  0  0
 27 41  1  0  0  0  0
 28 29  1  0  0  0  0
M  END
$$$$
