
 OpenBabel01122422483D

 41 44  0  0  0  0  0  0  0  0999 V2000
    0.5479    0.3745    0.0465 O   0  0  0  0  0  0  0  0  0  0  0  0
    1.7674    0.3287    0.0700 C   0  0  0  0  0  0  0  0  0  0  0  0
    2.5498   -0.4735    0.8885 N   0  0  0  0  0  0  0  0  0  0  0  0
    2.0426   -1.4481    1.7202 C   0  0  0  0  0  0  0  0  0  0  0  0
    2.5922   -1.7826    2.9433 C   0  0  0  0  0  0  0  0  0  0  0  0
    3.7341   -1.1635    3.6193 C   0  0  0  0  0  0  0  0  0  0  0  0
    4.2882   -0.1826    2.8462 F   0  0  0  0  0  0  0  0  0  0  0  0
    3.3970   -0.5683    4.7871 F   0  0  0  0  0  0  0  0  0  0  0  0
    4.7404   -2.0353    3.8654 F   0  0  0  0  0  0  0  0  0  0  0  0
    1.7077   -2.6723    3.5300 N   0  0  0  0  0  0  0  0  0  0  0  0
    1.6305   -3.2079    4.8549 C   0  0  0  0  0  0  0  0  0  0  0  0
    0.3870   -3.7012    5.2948 C   0  0  0  0  0  0  0  0  0  0  0  0
    0.2337   -4.2205    6.5817 C   0  0  0  0  0  0  0  0  0  0  0  0
    1.3232   -4.2716    7.4431 C   0  0  0  0  0  0  0  0  0  0  0  0
    2.5603   -3.7947    7.0198 C   0  0  0  0  0  0  0  0  0  0  0  0
    2.7155   -3.2618    5.7345 C   0  0  0  0  0  0  0  0  0  0  0  0
    0.7274   -3.0271    2.6452 N   0  0  0  0  0  0  0  0  0  0  0  0
    0.9234   -2.2682    1.5724 C   0  0  0  0  0  0  0  0  0  0  0  0
    2.5602    1.2738   -0.7449 C   0  0  0  0  0  0  0  0  0  0  0  0
    2.2790    2.6464   -0.7384 C   0  0  0  0  0  0  0  0  0  0  0  0
    3.2147    3.5587   -1.2523 C   0  0  0  0  0  0  0  0  0  0  0  0
    4.4697    3.1094   -1.6700 C   0  0  0  0  0  0  0  0  0  0  0  0
    4.7393    1.7336   -1.6531 C   0  0  0  0  0  0  0  0  0  0  0  0
    3.7517    0.8225   -1.3272 C   0  0  0  0  0  0  0  0  0  0  0  0
    4.0424   -0.5904   -1.5248 C   0  0  0  0  0  0  0  0  0  0  0  0
    5.2457   -1.0585   -1.5731 N   0  0  0  0  0  0  0  0  0  0  0  0
    6.2606   -0.1465   -1.5295 N   0  0  0  0  0  0  0  0  0  0  0  0
    6.1154    1.2075   -1.7710 C   0  0  0  0  0  0  0  0  0  0  0  0
    7.0721    1.9515   -1.9577 O   0  0  0  0  0  0  0  0  0  0  0  0
    3.5086   -0.1833    1.0753 H   0  0  0  0  0  0  0  0  0  0  0  0
   -0.4906   -3.6624    4.6498 H   0  0  0  0  0  0  0  0  0  0  0  0
   -0.7383   -4.5828    6.9061 H   0  0  0  0  0  0  0  0  0  0  0  0
    1.2110   -4.6871    8.4407 H   0  0  0  0  0  0  0  0  0  0  0  0
    3.4162   -3.8449    7.6894 H   0  0  0  0  0  0  0  0  0  0  0  0
    3.7153   -2.9493    5.4714 H   0  0  0  0  0  0  0  0  0  0  0  0
    0.2514   -2.3608    0.7279 H   0  0  0  0  0  0  0  0  0  0  0  0
    1.3591    3.0122   -0.2874 H   0  0  0  0  0  0  0  0  0  0  0  0
    2.9942    4.6248   -1.2483 H   0  0  0  0  0  0  0  0  0  0  0  0
    5.2420    3.8196   -1.9593 H   0  0  0  0  0  0  0  0  0  0  0  0
    3.1938   -1.2831   -1.6371 H   0  0  0  0  0  0  0  0  0  0  0  0
    7.2027   -0.5266   -1.5151 H   0  0  0  0  0  0  0  0  0  0  0  0
  1  2  2  0  0  0  0
  2  3  1  0  0  0  0
  2 19  1  0  0  0  0
  3  4  1  0  0  0  0
  3 30  1  0  0  0  0
  4  5  2  0  0  0  0
  4 18  1  0  0  0  0
  5  6  1  0  0  0  0
  5 10  1  0  0  0  0
  6  7  1  0  0  0  0
  6  8  1  0  0  0  0
  6  9  1  0  0  0  0
 10 11  1  0  0  0  0
 10 17  1  0  0  0  0
 11 12  2  0  0  0  0
 11 16  1  0  0  0  0
 12 13  1  0  0  0  0
 12 31  1  0  0  0  0
 13 14  2  0  0  0  0
 13 32  1  0  0  0  0
 14 15  1  0  0  0  0
 14 33  1  0  0  0  0
 15 16  2  0  0  0  0
 15 34  1  0  0  0  0
 16 35  1  0  0  0  0
 17 18  2  0  0  0  0
 18 36  1  0  0  0  0
 19 20  2  0  0  0  0
 19 24  1  0  0  0  0
 20 21  1  0  0  0  0
 20 37  1  0  0  0  0
 21 22  2  0  0  0  0
 21 38  1  0  0  0  0
 22 23  1  0  0  0  0
 22 39  1  0  0  0  0
 23 24  2  0  0  0  0
 23 28  1  0  0  0  0
 24 25  1  0  0  0  0
 25 26  2  0  0  0  0
 25 40  1  0  0  0  0
 26 27  1  0  0  0  0
 27 28  1  0  0  0  0
 27 41  1  0  0  0  0
 28 29  2  0  0  0  0
M  END
$$$$
