
 OpenBabel01122422483D

 44 47  0  0  0  0  0  0  0  0999 V2000
    2.2175    0.0722   -0.0076 C   0  0  0  0  0  0  0  0  0  0  0  0
    0.7693   -0.0140   -0.0089 N   0  0  0  0  0  0  0  0  0  0  0  0
    0.0107   -1.1789   -0.0489 C   0  0  0  0  0  0  0  0  0  0  0  0
    0.5105   -2.5560   -0.0729 C   0  0  0  0  0  0  0  0  0  0  0  0
    1.5708   -2.8904    0.4349 O   0  0  0  0  0  0  0  0  0  0  0  0
   -0.3385   -3.4020   -0.7702 N   0  0  0  0  0  0  0  0  0  0  0  0
   -0.1714   -4.7768   -1.0141 C   0  0  0  0  0  0  0  0  0  0  0  0
    0.7253   -5.5871   -0.3216 C   0  0  0  0  0  0  0  0  0  0  0  0
    0.9114   -6.9221   -0.7041 C   0  0  0  0  0  0  0  0  0  0  0  0
    0.2070   -7.4682   -1.7860 C   0  0  0  0  0  0  0  0  0  0  0  0
    0.5184   -8.8127   -2.2531 C   0  0  0  0  0  0  0  0  0  0  0  0
    1.4104   -9.6814   -1.8178 N   0  0  0  0  0  0  0  0  0  0  0  0
    1.3559  -10.7650   -2.6723 N   0  0  0  0  0  0  0  0  0  0  0  0
    0.4367  -10.4769   -3.5613 C   0  0  0  0  0  0  0  0  0  0  0  0
   -0.1476   -9.2638   -3.3672 O   0  0  0  0  0  0  0  0  0  0  0  0
   -0.7515   -6.6700   -2.4235 C   0  0  0  0  0  0  0  0  0  0  0  0
   -0.9470   -5.3410   -2.0333 C   0  0  0  0  0  0  0  0  0  0  0  0
   -1.3158   -0.7830   -0.0437 C   0  0  0  0  0  0  0  0  0  0  0  0
   -1.3648    0.6216   -0.0468 C   0  0  0  0  0  0  0  0  0  0  0  0
   -0.0682    1.1017    0.0198 C   0  0  0  0  0  0  0  0  0  0  0  0
    0.3625    2.4936    0.0904 C   0  0  0  0  0  0  0  0  0  0  0  0
    1.4179    2.8901   -0.3990 O   0  0  0  0  0  0  0  0  0  0  0  0
   -0.5099    3.5037    0.7573 C   0  0  0  0  0  0  0  0  0  0  0  0
   -0.5385    4.8190    0.2713 C   0  0  0  0  0  0  0  0  0  0  0  0
   -1.3241    5.7897    0.9063 C   0  0  0  0  0  0  0  0  0  0  0  0
   -2.0882    5.4535    2.0251 C   0  0  0  0  0  0  0  0  0  0  0  0
   -2.0619    4.1502    2.5131 C   0  0  0  0  0  0  0  0  0  0  0  0
   -1.2636    3.1911    1.8921 C   0  0  0  0  0  0  0  0  0  0  0  0
   -1.2277    1.9694    2.4409 F   0  0  0  0  0  0  0  0  0  0  0  0
    2.6726   -0.8892    0.2252 H   0  0  0  0  0  0  0  0  0  0  0  0
    2.5311    0.7891    0.7556 H   0  0  0  0  0  0  0  0  0  0  0  0
    2.5405    0.3959   -1.0006 H   0  0  0  0  0  0  0  0  0  0  0  0
   -1.0709   -2.9469   -1.2958 H   0  0  0  0  0  0  0  0  0  0  0  0
    1.3033   -5.2068    0.5161 H   0  0  0  0  0  0  0  0  0  0  0  0
    1.6410   -7.5244   -0.1637 H   0  0  0  0  0  0  0  0  0  0  0  0
    0.1000  -11.0620   -4.4032 H   0  0  0  0  0  0  0  0  0  0  0  0
   -1.3340   -7.0605   -3.2555 H   0  0  0  0  0  0  0  0  0  0  0  0
   -1.6767   -4.7442   -2.5751 H   0  0  0  0  0  0  0  0  0  0  0  0
   -2.1758   -1.4420   -0.0244 H   0  0  0  0  0  0  0  0  0  0  0  0
   -2.2645    1.2245   -0.0542 H   0  0  0  0  0  0  0  0  0  0  0  0
    0.0532    5.0973   -0.5995 H   0  0  0  0  0  0  0  0  0  0  0  0
   -1.3344    6.8122    0.5329 H   0  0  0  0  0  0  0  0  0  0  0  0
   -2.6916    6.2082    2.5241 H   0  0  0  0  0  0  0  0  0  0  0  0
   -2.6447    3.8718    3.3864 H   0  0  0  0  0  0  0  0  0  0  0  0
  1  2  1  0  0  0  0
  1 30  1  0  0  0  0
  1 31  1  0  0  0  0
  1 32  1  0  0  0  0
  2  3  1  0  0  0  0
  2 20  1  0  0  0  0
  3  4  1  0  0  0  0
  3 18  2  0  0  0  0
  4  5  2  0  0  0  0
  4  6  1  0  0  0  0
  6  7  1  0  0  0  0
  6 33  1  0  0  0  0
  7  8  2  0  0  0  0
  7 17  1  0  0  0  0
  8  9  1  0  0  0  0
  8 34  1  0  0  0  0
  9 10  2  0  0  0  0
  9 35  1  0  0  0  0
 10 11  1  0  0  0  0
 10 16  1  0  0  0  0
 11 12  2  0  0  0  0
 11 15  1  0  0  0  0
 12 13  1  0  0  0  0
 13 14  2  0  0  0  0
 14 15  1  0  0  0  0
 14 36  1  0  0  0  0
 16 17  2  0  0  0  0
 16 37  1  0  0  0  0
 17 38  1  0  0  0  0
 18 19  1  0  0  0  0
 18 39  1  0  0  0  0
 19 20  2  0  0  0  0
 19 40  1  0  0  0  0
 20 21  1  0  0  0  0
 21 22  2  0  0  0  0
 21 23  1  0  0  0  0
 23 24  2  0  0  0  0
 23 28  1  0  0  0  0
 24 25  1  0  0  0  0
 24 41  1  0  0  0  0
 25 26  2  0  0  0  0
 25 42  1  0  0  0  0
 26 27  1  0  0  0  0
 26 43  1  0  0  0  0
 27 28  2  0  0  0  0
 27 44  1  0  0  0  0
 28 29  1  0  0  0  0
M  END
$$$$
