
 OpenBabel01122422493D

 46 49  0  0  0  0  0  0  0  0999 V2000
    3.0923   -0.6282   -1.2640 C   0  0  0  0  0  0  0  0  0  0  0  0
    2.6194   -0.0607    0.0661 C   0  0  0  0  0  0  0  0  0  0  0  0
    3.0892    1.3623    0.2883 C   0  0  0  0  0  0  0  0  0  0  0  0
    2.2556    2.3937   -0.1407 C   0  0  0  0  0  0  0  0  0  0  0  0
    2.6262    3.7178    0.0445 C   0  0  0  0  0  0  0  0  0  0  0  0
    3.8362    4.0676    0.6572 C   0  0  0  0  0  0  0  0  0  0  0  0
    4.1801    5.4462    0.8417 N   0  0  0  0  0  0  0  0  0  0  0  0
    3.4058    6.5315    0.4601 C   0  0  0  0  0  0  0  0  0  0  0  0
    2.3209    6.5114   -0.1096 O   0  0  0  0  0  0  0  0  0  0  0  0
    3.9560    7.9165    0.7972 C   0  0  0  0  0  0  0  0  0  0  0  0
    5.0732    8.0387    1.4430 N   0  0  0  0  0  0  0  0  0  0  0  0
    5.5072    9.3316    1.7472 N   0  0  0  0  0  0  0  0  0  0  0  0
    6.7781    9.3930    2.4218 C   0  0  0  0  0  0  0  0  0  0  0  0
    7.1801   10.5381    3.1352 C   0  0  0  0  0  0  0  0  0  0  0  0
    8.4355   10.6219    3.7500 C   0  0  0  0  0  0  0  0  0  0  0  0
    9.3231    9.5573    3.6711 C   0  0  0  0  0  0  0  0  0  0  0  0
    8.9459    8.4038    2.9912 C   0  0  0  0  0  0  0  0  0  0  0  0
    7.6887    8.3210    2.3845 C   0  0  0  0  0  0  0  0  0  0  0  0
    7.4167    7.1862    1.7181 F   0  0  0  0  0  0  0  0  0  0  0  0
    4.7794   10.4849    1.4061 C   0  0  0  0  0  0  0  0  0  0  0  0
    5.0801   11.6583    1.6168 O   0  0  0  0  0  0  0  0  0  0  0  0
    3.5266   10.2673    0.6587 C   0  0  0  0  0  0  0  0  0  0  0  0
    3.1187    9.0439    0.3416 C   0  0  0  0  0  0  0  0  0  0  0  0
    4.7045    3.0133    1.0860 C   0  0  0  0  0  0  0  0  0  0  0  0
    5.9587    3.2094    1.7132 C   0  0  0  0  0  0  0  0  0  0  0  0
    6.7509    2.1285    2.0962 C   0  0  0  0  0  0  0  0  0  0  0  0
    6.2791    0.8616    1.8462 C   0  0  0  0  0  0  0  0  0  0  0  0
    5.0943    0.6159    1.2598 N   0  0  0  0  0  0  0  0  0  0  0  0
    4.3178    1.6537    0.8868 C   0  0  0  0  0  0  0  0  0  0  0  0
    2.6659   -1.6246   -1.4200 H   0  0  0  0  0  0  0  0  0  0  0  0
    4.1828   -0.7178   -1.2931 H   0  0  0  0  0  0  0  0  0  0  0  0
    2.7833    0.0053   -2.1025 H   0  0  0  0  0  0  0  0  0  0  0  0
    2.9411   -0.7067    0.8908 H   0  0  0  0  0  0  0  0  0  0  0  0
    1.5218   -0.0844    0.0933 H   0  0  0  0  0  0  0  0  0  0  0  0
    1.3051    2.1751   -0.6208 H   0  0  0  0  0  0  0  0  0  0  0  0
    1.9129    4.4502   -0.3135 H   0  0  0  0  0  0  0  0  0  0  0  0
    5.0566    5.6805    1.2977 H   0  0  0  0  0  0  0  0  0  0  0  0
    6.5242   11.3958    3.2582 H   0  0  0  0  0  0  0  0  0  0  0  0
    8.7110   11.5280    4.2860 H   0  0  0  0  0  0  0  0  0  0  0  0
   10.3027    9.6272    4.1363 H   0  0  0  0  0  0  0  0  0  0  0  0
    9.6294    7.5645    2.9123 H   0  0  0  0  0  0  0  0  0  0  0  0
    2.9748   11.1521    0.3664 H   0  0  0  0  0  0  0  0  0  0  0  0
    2.2134    8.8623   -0.2230 H   0  0  0  0  0  0  0  0  0  0  0  0
    6.3433    4.2043    1.9144 H   0  0  0  0  0  0  0  0  0  0  0  0
    7.7117    2.2737    2.5762 H   0  0  0  0  0  0  0  0  0  0  0  0
    6.8507   -0.0225    2.1178 H   0  0  0  0  0  0  0  0  0  0  0  0
  1  2  1  0  0  0  0
  1 30  1  0  0  0  0
  1 31  1  0  0  0  0
  1 32  1  0  0  0  0
  2  3  1  0  0  0  0
  2 33  1  0  0  0  0
  2 34  1  0  0  0  0
  3  4  2  0  0  0  0
  3 29  1  0  0  0  0
  4  5  1  0  0  0  0
  4 35  1  0  0  0  0
  5  6  2  0  0  0  0
  5 36  1  0  0  0  0
  6  7  1  0  0  0  0
  6 24  1  0  0  0  0
  7  8  1  0  0  0  0
  7 37  1  0  0  0  0
  8  9  2  0  0  0  0
  8 10  1  0  0  0  0
 10 11  2  0  0  0  0
 10 23  1  0  0  0  0
 11 12  1  0  0  0  0
 12 13  1  0  0  0  0
 12 20  1  0  0  0  0
 13 14  2  0  0  0  0
 13 18  1  0  0  0  0
 14 15  1  0  0  0  0
 14 38  1  0  0  0  0
 15 16  2  0  0  0  0
 15 39  1  0  0  0  0
 16 17  1  0  0  0  0
 16 40  1  0  0  0  0
 17 18  2  0  0  0  0
 17 41  1  0  0  0  0
 18 19  1  0  0  0  0
 20 21  2  0  0  0  0
 20 22  1  0  0  0  0
 22 23  2  0  0  0  0
 22 42  1  0  0  0  0
 23 43  1  0  0  0  0
 24 25  2  0  0  0  0
 24 29  1  0  0  0  0
 25 26  1  0  0  0  0
 25 44  1  0  0  0  0
 26 27  2  0  0  0  0
 26 45  1  0  0  0  0
 27 28  1  0  0  0  0
 27 46  1  0  0  0  0
 28 29  2  0  0  0  0
M  END
$$$$
