
 OpenBabel01122422453D

 50 53  0  0  0  0  0  0  0  0999 V2000
    2.0101    0.3602    1.2622 C   0  0  0  0  0  0  0  0  0  0  0  0
    2.1434    0.1044   -0.1337 O   0  0  0  0  0  0  0  0  0  0  0  0
    2.8152    1.0474   -0.8634 C   0  0  0  0  0  0  0  0  0  0  0  0
    3.3626    2.2188   -0.3488 C   0  0  0  0  0  0  0  0  0  0  0  0
    4.0249    3.1164   -1.1895 C   0  0  0  0  0  0  0  0  0  0  0  0
    4.1429    2.8623   -2.5649 C   0  0  0  0  0  0  0  0  0  0  0  0
    4.7985    3.8060   -3.4105 N   0  0  0  0  0  0  0  0  0  0  0  0
    5.4786    4.9303   -2.9975 C   0  0  0  0  0  0  0  0  0  0  0  0
    5.8652    5.6078   -4.1197 C   0  0  0  0  0  0  0  0  0  0  0  0
    5.4114    4.8248   -5.2037 C   0  0  0  0  0  0  0  0  0  0  0  0
    5.5794    5.2060   -6.6156 C   0  0  0  0  0  0  0  0  0  0  0  0
    6.1313    6.2555   -6.9383 O   0  0  0  0  0  0  0  0  0  0  0  0
    5.0583    4.3247   -7.5299 N   0  0  0  0  0  0  0  0  0  0  0  0
    5.0514    4.6188   -8.9403 C   0  0  0  0  0  0  0  0  0  0  0  0
    5.8345    3.6021   -9.7259 C   0  0  0  0  0  0  0  0  0  0  0  0
    5.1930    2.4937  -10.2932 C   0  0  0  0  0  0  0  0  0  0  0  0
    5.9187    1.5560  -11.0318 C   0  0  0  0  0  0  0  0  0  0  0  0
    7.2977    1.7132  -11.2096 C   0  0  0  0  0  0  0  0  0  0  0  0
    8.0661    0.7241  -11.9805 C   0  0  0  0  0  0  0  0  0  0  0  0
    8.1731    0.8807  -13.3124 C   0  0  0  0  0  0  0  0  0  0  0  0
    8.9056   -0.0034  -14.0685 N   0  0  0  0  0  0  0  0  0  0  0  0
    9.5794   -1.0825  -13.5504 C   0  0  0  0  0  0  0  0  0  0  0  0
   10.2469   -1.8441  -14.2386 O   0  0  0  0  0  0  0  0  0  0  0  0
    9.4515   -1.2791  -12.0843 C   0  0  0  0  0  0  0  0  0  0  0  0
    8.7286   -0.4122  -11.3595 C   0  0  0  0  0  0  0  0  0  0  0  0
    7.9460    2.8098  -10.6310 C   0  0  0  0  0  0  0  0  0  0  0  0
    7.2197    3.7470   -9.8921 C   0  0  0  0  0  0  0  0  0  0  0  0
    4.7893    3.7034   -4.7755 N   0  0  0  0  0  0  0  0  0  0  0  0
    3.5945    1.6855   -3.0857 C   0  0  0  0  0  0  0  0  0  0  0  0
    2.9394    0.7840   -2.2319 C   0  0  0  0  0  0  0  0  0  0  0  0
    1.4603   -0.4720    1.7109 H   0  0  0  0  0  0  0  0  0  0  0  0
    1.4339    1.2746    1.4434 H   0  0  0  0  0  0  0  0  0  0  0  0
    2.9905    0.4115    1.7490 H   0  0  0  0  0  0  0  0  0  0  0  0
    3.2884    2.4759    0.7025 H   0  0  0  0  0  0  0  0  0  0  0  0
    4.4130    4.0194   -0.7299 H   0  0  0  0  0  0  0  0  0  0  0  0
    5.6322    5.1710   -1.9576 H   0  0  0  0  0  0  0  0  0  0  0  0
    6.3949    6.5491   -4.1693 H   0  0  0  0  0  0  0  0  0  0  0  0
    4.6288    3.4806   -7.1673 H   0  0  0  0  0  0  0  0  0  0  0  0
    5.4492    5.6214   -9.1390 H   0  0  0  0  0  0  0  0  0  0  0  0
    4.0061    4.6326   -9.2680 H   0  0  0  0  0  0  0  0  0  0  0  0
    4.1213    2.3571  -10.1672 H   0  0  0  0  0  0  0  0  0  0  0  0
    5.4015    0.7044  -11.4670 H   0  0  0  0  0  0  0  0  0  0  0  0
    7.7069    1.6996  -13.8527 H   0  0  0  0  0  0  0  0  0  0  0  0
    8.9906    0.1301  -15.0685 H   0  0  0  0  0  0  0  0  0  0  0  0
    9.9585   -2.1316  -11.6551 H   0  0  0  0  0  0  0  0  0  0  0  0
    8.6211   -0.5432  -10.2872 H   0  0  0  0  0  0  0  0  0  0  0  0
    9.0192    2.9425  -10.7543 H   0  0  0  0  0  0  0  0  0  0  0  0
    7.7391    4.5951   -9.4487 H   0  0  0  0  0  0  0  0  0  0  0  0
    3.6724    1.4477   -4.1445 H   0  0  0  0  0  0  0  0  0  0  0  0
    2.5177   -0.1327   -2.6391 H   0  0  0  0  0  0  0  0  0  0  0  0
  1  2  1  0  0  0  0
  1 31  1  0  0  0  0
  1 32  1  0  0  0  0
  1 33  1  0  0  0  0
  2  3  1  0  0  0  0
  3  4  2  0  0  0  0
  3 30  1  0  0  0  0
  4  5  1  0  0  0  0
  4 34  1  0  0  0  0
  5  6  2  0  0  0  0
  5 35  1  0  0  0  0
  6  7  1  0  0  0  0
  6 29  1  0  0  0  0
  7  8  1  0  0  0  0
  7 28  1  0  0  0  0
  8  9  2  0  0  0  0
  8 36  1  0  0  0  0
  9 10  1  0  0  0  0
  9 37  1  0  0  0  0
 10 11  1  0  0  0  0
 10 28  2  0  0  0  0
 11 12  2  0  0  0  0
 11 13  1  0  0  0  0
 13 14  1  0  0  0  0
 13 38  1  0  0  0  0
 14 15  1  0  0  0  0
 14 39  1  0  0  0  0
 14 40  1  0  0  0  0
 15 16  2  0  0  0  0
 15 27  1  0  0  0  0
 16 17  1  0  0  0  0
 16 41  1  0  0  0  0
 17 18  2  0  0  0  0
 17 42  1  0  0  0  0
 18 19  1  0  0  0  0
 18 26  1  0  0  0  0
 19 20  2  0  0  0  0
 19 25  1  0  0  0  0
 20 21  1  0  0  0  0
 20 43  1  0  0  0  0
 21 22  1  0  0  0  0
 21 44  1  0  0  0  0
 22 23  2  0  0  0  0
 22 24  1  0  0  0  0
 24 25  2  0  0  0  0
 24 45  1  0  0  0  0
 25 46  1  0  0  0  0
 26 27  2  0  0  0  0
 26 47  1  0  0  0  0
 27 48  1  0  0  0  0
 29 30  2  0  0  0  0
 29 49  1  0  0  0  0
 30 50  1  0  0  0  0
M  END
$$$$
