
 OpenBabel01122422493D

 50 53  0  0  1  0  0  0  0  0999 V2000
   -1.4198   -1.6805   -4.7422 C   0  0  0  0  0  0  0  0  0  0  0  0
   -1.2776   -1.7030   -3.2747 C   0  0  0  0  0  0  0  0  0  0  0  0
   -0.3510   -1.2322   -2.3807 C   0  0  0  0  0  0  0  0  0  0  0  0
   -0.7322   -1.5456   -1.0999 N   0  0  0  0  0  0  0  0  0  0  0  0
   -1.8890   -2.1679   -1.2558 C   0  0  0  0  0  0  0  0  0  0  0  0
   -2.7846   -2.7763   -0.2157 C   0  0  3  0  0  0  0  0  0  0  0  0
   -2.8521   -4.1971   -0.5063 O   0  0  0  0  0  0  0  0  0  0  0  0
   -2.1840   -2.5987    1.1968 C   0  0  0  0  0  0  0  0  0  0  0  0
   -0.8708   -3.2262    1.3640 N   0  0  0  0  0  0  0  0  0  0  0  0
   -0.6652   -4.2265    2.2883 C   0  0  0  0  0  0  0  0  0  0  0  0
   -1.5697   -4.7001    2.9626 O   0  0  0  0  0  0  0  0  0  0  0  0
    0.7078   -4.7729    2.4004 C   0  0  0  0  0  0  0  0  0  0  0  0
    1.8594   -4.0688    2.0355 C   0  0  0  0  0  0  0  0  0  0  0  0
    3.1132   -4.6966    2.0925 C   0  0  0  0  0  0  0  0  0  0  0  0
    3.2585   -6.0198    2.5525 C   0  0  0  0  0  0  0  0  0  0  0  0
    4.5781   -6.7185    2.5605 C   0  0  0  0  0  0  0  0  0  0  0  0
    5.7424   -5.9786    2.8763 C   0  0  0  0  0  0  0  0  0  0  0  0
    6.9970   -6.5813    3.0009 C   0  0  0  0  0  0  0  0  0  0  0  0
    7.1236   -7.9536    2.8482 C   0  0  0  0  0  0  0  0  0  0  0  0
    6.0070   -8.7123    2.5065 C   0  0  0  0  0  0  0  0  0  0  0  0
    4.7452   -8.1110    2.3124 C   0  0  0  0  0  0  0  0  0  0  0  0
    3.6675   -8.9723    1.8264 C   0  0  0  0  0  0  0  0  0  0  0  0
    3.4592  -10.2381    2.2376 N   0  0  0  0  0  0  0  0  0  0  0  0
    2.3372  -10.5254    1.5595 N   0  0  0  0  0  0  0  0  0  0  0  0
    1.8674   -9.5619    0.7625 N   0  0  0  0  0  0  0  0  0  0  0  0
    2.7312   -8.5668    0.9006 N   0  0  0  0  0  0  0  0  0  0  0  0
    2.0948   -6.6552    3.0232 C   0  0  0  0  0  0  0  0  0  0  0  0
    0.8369   -6.0669    2.9059 C   0  0  0  0  0  0  0  0  0  0  0  0
   -4.1745   -2.0944   -0.2397 C   0  0  0  0  0  0  0  0  0  0  0  0
   -4.2880   -1.1240   -1.1783 F   0  0  0  0  0  0  0  0  0  0  0  0
   -5.1759   -2.9776   -0.4738 F   0  0  0  0  0  0  0  0  0  0  0  0
   -4.4664   -1.4968    0.9463 F   0  0  0  0  0  0  0  0  0  0  0  0
   -2.2653   -2.3210   -2.5665 O   0  0  0  0  0  0  0  0  0  0  0  0
   -0.5927   -1.1357   -5.2076 H   0  0  0  0  0  0  0  0  0  0  0  0
   -2.3548   -1.1904   -5.0284 H   0  0  0  0  0  0  0  0  0  0  0  0
   -1.4265   -2.6981   -5.1426 H   0  0  0  0  0  0  0  0  0  0  0  0
    0.5640   -0.6906   -2.5878 H   0  0  0  0  0  0  0  0  0  0  0  0
   -1.9973   -4.5784   -0.2310 H   0  0  0  0  0  0  0  0  0  0  0  0
   -2.8702   -3.0307    1.9346 H   0  0  0  0  0  0  0  0  0  0  0  0
   -2.0476   -1.5392    1.4410 H   0  0  0  0  0  0  0  0  0  0  0  0
   -0.1062   -2.8517    0.8107 H   0  0  0  0  0  0  0  0  0  0  0  0
    1.8094   -3.0349    1.7082 H   0  0  0  0  0  0  0  0  0  0  0  0
    3.9786   -4.1290    1.7573 H   0  0  0  0  0  0  0  0  0  0  0  0
    5.6847   -4.9065    3.0556 H   0  0  0  0  0  0  0  0  0  0  0  0
    7.8684   -5.9763    3.2395 H   0  0  0  0  0  0  0  0  0  0  0  0
    8.0893   -8.4337    2.9825 H   0  0  0  0  0  0  0  0  0  0  0  0
    6.1242   -9.7872    2.3750 H   0  0  0  0  0  0  0  0  0  0  0  0
    1.8649  -11.4212    1.6445 H   0  0  0  0  0  0  0  0  0  0  0  0
    2.1338   -7.6523    3.4531 H   0  0  0  0  0  0  0  0  0  0  0  0
   -0.0446   -6.6359    3.1951 H   0  0  0  0  0  0  0  0  0  0  0  0
  1  2  1  0  0  0  0
  1 34  1  0  0  0  0
  1 35  1  0  0  0  0
  1 36  1  0  0  0  0
  2  3  2  0  0  0  0
  2 33  1  0  0  0  0
  3  4  1  0  0  0  0
  3 37  1  0  0  0  0
  4  5  2  0  0  0  0
  5  6  1  0  0  0  0
  5 33  1  0  0  0  0
  6  7  1  0  0  0  0
  6  8  1  0  0  0  0
  6 29  1  0  0  0  0
  7 38  1  0  0  0  0
  8  9  1  0  0  0  0
  8 39  1  0  0  0  0
  8 40  1  0  0  0  0
  9 10  1  0  0  0  0
  9 41  1  0  0  0  0
 10 11  2  0  0  0  0
 10 12  1  0  0  0  0
 12 13  2  0  0  0  0
 12 28  1  0  0  0  0
 13 14  1  0  0  0  0
 13 42  1  0  0  0  0
 14 15  2  0  0  0  0
 14 43  1  0  0  0  0
 15 16  1  0  0  0  0
 15 27  1  0  0  0  0
 16 17  2  0  0  0  0
 16 21  1  0  0  0  0
 17 18  1  0  0  0  0
 17 44  1  0  0  0  0
 18 19  2  0  0  0  0
 18 45  1  0  0  0  0
 19 20  1  0  0  0  0
 19 46  1  0  0  0  0
 20 21  2  0  0  0  0
 20 47  1  0  0  0  0
 21 22  1  0  0  0  0
 22 23  2  0  0  0  0
 22 26  1  0  0  0  0
 23 24  1  0  0  0  0
 24 25  1  0  0  0  0
 24 48  1  0  0  0  0
 25 26  2  0  0  0  0
 27 28  2  0  0  0  0
 27 49  1  0  0  0  0
 28 50  1  0  0  0  0
 29 30  1  0  0  0  0
 29 31  1  0  0  0  0
 29 32  1  0  0  0  0
M  END
$$$$
