
 OpenBabel01122422493D

 50 53  0  0  0  0  0  0  0  0999 V2000
    4.6741    0.5586   -2.7981 C   0  0  0  0  0  0  0  0  0  0  0  0
    4.2877    0.1979   -1.4373 N   0  0  0  0  0  0  0  0  0  0  0  0
    3.1019    0.7930   -0.7994 C   0  0  0  0  0  0  0  0  0  0  0  0
    2.1562    1.4911   -1.7049 C   0  0  0  0  0  0  0  0  0  0  0  0
    1.1271    1.0019   -2.4807 C   0  0  0  0  0  0  0  0  0  0  0  0
    0.6358    2.1034   -3.1510 N   0  0  0  0  0  0  0  0  0  0  0  0
   -0.3920    2.1392   -4.1278 C   0  0  0  0  0  0  0  0  0  0  0  0
   -1.4625    1.2344   -3.9465 C   0  0  0  0  0  0  0  0  0  0  0  0
   -2.5808    1.2818   -4.7729 C   0  0  0  0  0  0  0  0  0  0  0  0
   -2.6352    2.2172   -5.7940 C   0  0  0  0  0  0  0  0  0  0  0  0
   -1.5516    3.0743   -6.0170 C   0  0  0  0  0  0  0  0  0  0  0  0
   -0.3855    3.0598   -5.2124 C   0  0  0  0  0  0  0  0  0  0  0  0
    0.7778    3.9095   -5.6301 C   0  0  0  0  0  0  0  0  0  0  0  0
    0.5979    5.1716   -6.2313 C   0  0  0  0  0  0  0  0  0  0  0  0
    1.6837    5.9618   -6.6337 C   0  0  0  0  0  0  0  0  0  0  0  0
    2.9852    5.5298   -6.4081 C   0  0  0  0  0  0  0  0  0  0  0  0
    3.1996    4.2859   -5.8319 C   0  0  0  0  0  0  0  0  0  0  0  0
    2.1113    3.4738   -5.4948 C   0  0  0  0  0  0  0  0  0  0  0  0
    1.2633    3.2137   -2.7013 N   0  0  0  0  0  0  0  0  0  0  0  0
    2.2065    2.8499   -1.8451 N   0  0  0  0  0  0  0  0  0  0  0  0
    5.2985   -0.3917   -0.6681 C   0  0  0  0  0  0  0  0  0  0  0  0
    6.3909   -0.6885   -1.1612 O   0  0  0  0  0  0  0  0  0  0  0  0
    5.0457   -0.6571    0.8066 C   0  0  0  0  0  0  0  0  0  0  0  0
    4.3444   -1.9624    1.0567 C   0  0  0  0  0  0  0  0  0  0  0  0
    3.1124   -1.8975    1.6353 N   0  0  0  0  0  0  0  0  0  0  0  0
    2.5034   -3.0759    1.9171 C   0  0  0  0  0  0  0  0  0  0  0  0
    3.0531   -4.3116    1.6394 C   0  0  0  0  0  0  0  0  0  0  0  0
    4.3077   -4.3613    1.0393 C   0  0  0  0  0  0  0  0  0  0  0  0
    4.9586   -3.1718    0.7517 C   0  0  0  0  0  0  0  0  0  0  0  0
    6.1817   -3.2142    0.2058 F   0  0  0  0  0  0  0  0  0  0  0  0
    3.8171    0.7863   -3.4319 H   0  0  0  0  0  0  0  0  0  0  0  0
    5.1988   -0.2866   -3.2588 H   0  0  0  0  0  0  0  0  0  0  0  0
    5.3582    1.4119   -2.7635 H   0  0  0  0  0  0  0  0  0  0  0  0
    3.4460    1.5019   -0.0382 H   0  0  0  0  0  0  0  0  0  0  0  0
    2.5694   -0.0136   -0.2857 H   0  0  0  0  0  0  0  0  0  0  0  0
    0.7753   -0.0006   -2.6690 H   0  0  0  0  0  0  0  0  0  0  0  0
   -1.4724    0.5232   -3.1231 H   0  0  0  0  0  0  0  0  0  0  0  0
   -3.4148    0.6045   -4.6069 H   0  0  0  0  0  0  0  0  0  0  0  0
   -3.5117    2.2739   -6.4353 H   0  0  0  0  0  0  0  0  0  0  0  0
   -1.6259    3.7479   -6.8694 H   0  0  0  0  0  0  0  0  0  0  0  0
   -0.3997    5.5717   -6.3961 H   0  0  0  0  0  0  0  0  0  0  0  0
    1.5081    6.9228   -7.1099 H   0  0  0  0  0  0  0  0  0  0  0  0
    3.8289    6.1577   -6.6795 H   0  0  0  0  0  0  0  0  0  0  0  0
    4.2109    3.9407   -5.6340 H   0  0  0  0  0  0  0  0  0  0  0  0
    2.3394    2.4932   -5.0874 H   0  0  0  0  0  0  0  0  0  0  0  0
    4.4999    0.1677    1.2681 H   0  0  0  0  0  0  0  0  0  0  0  0
    6.0159   -0.6697    1.3199 H   0  0  0  0  0  0  0  0  0  0  0  0
    1.5274   -2.9891    2.3920 H   0  0  0  0  0  0  0  0  0  0  0  0
    2.5233   -5.2259    1.8944 H   0  0  0  0  0  0  0  0  0  0  0  0
    4.7829   -5.3083    0.8066 H   0  0  0  0  0  0  0  0  0  0  0  0
  1  2  1  0  0  0  0
  1 31  1  0  0  0  0
  1 32  1  0  0  0  0
  1 33  1  0  0  0  0
  2  3  1  0  0  0  0
  2 21  1  0  0  0  0
  3  4  1  0  0  0  0
  3 34  1  0  0  0  0
  3 35  1  0  0  0  0
  4  5  2  0  0  0  0
  4 20  1  0  0  0  0
  5  6  1  0  0  0  0
  5 36  1  0  0  0  0
  6  7  1  0  0  0  0
  6 19  1  0  0  0  0
  7  8  2  0  0  0  0
  7 12  1  0  0  0  0
  8  9  1  0  0  0  0
  8 37  1  0  0  0  0
  9 10  2  0  0  0  0
  9 38  1  0  0  0  0
 10 11  1  0  0  0  0
 10 39  1  0  0  0  0
 11 12  2  0  0  0  0
 11 40  1  0  0  0  0
 12 13  1  0  0  0  0
 13 14  2  0  0  0  0
 13 18  1  0  0  0  0
 14 15  1  0  0  0  0
 14 41  1  0  0  0  0
 15 16  2  0  0  0  0
 15 42  1  0  0  0  0
 16 17  1  0  0  0  0
 16 43  1  0  0  0  0
 17 18  2  0  0  0  0
 17 44  1  0  0  0  0
 18 45  1  0  0  0  0
 19 20  2  0  0  0  0
 21 22  2  0  0  0  0
 21 23  1  0  0  0  0
 23 24  1  0  0  0  0
 23 46  1  0  0  0  0
 23 47  1  0  0  0  0
 24 25  2  0  0  0  0
 24 29  1  0  0  0  0
 25 26  1  0  0  0  0
 26 27  2  0  0  0  0
 26 48  1  0  0  0  0
 27 28  1  0  0  0  0
 27 49  1  0  0  0  0
 28 29  2  0  0  0  0
 28 50  1  0  0  0  0
 29 30  1  0  0  0  0
M  END
$$$$
