
 OpenBabel01122422493D

 46 49  0  0  1  0  0  0  0  0999 V2000
    2.8144   -0.1726    1.1206 O   0  0  0  0  0  0  0  0  0  0  0  0
    2.2697   -0.0365    0.0289 C   0  0  0  0  0  0  0  0  0  0  0  0
    0.9139    0.0947   -0.1781 N   0  0  0  0  0  0  0  0  0  0  0  0
   -0.0636    0.1196    0.8457 C   0  0  0  0  0  0  0  0  0  0  0  0
    0.1915    0.3337    2.1862 C   0  0  0  0  0  0  0  0  0  0  0  0
   -0.7514    0.2882    3.1546 N   0  0  0  0  0  0  0  0  0  0  0  0
   -2.0165    0.0020    2.7692 C   0  0  0  0  0  0  0  0  0  0  0  0
   -3.0499   -0.1754    3.8289 C   0  0  0  0  0  0  0  0  0  0  0  0
   -2.9057    0.5111    4.9889 N   0  0  0  0  0  0  0  0  0  0  0  0
   -3.8410    0.3094    5.9336 C   0  0  0  0  0  0  0  0  0  0  0  0
   -4.9025   -0.5491    5.7803 C   0  0  0  0  0  0  0  0  0  0  0  0
   -4.9659   -1.2062    4.5759 C   0  0  0  0  0  0  0  0  0  0  0  0
   -4.0691   -1.0375    3.5880 N   0  0  0  0  0  0  0  0  0  0  0  0
   -2.3799   -0.1713    1.4746 N   0  0  0  0  0  0  0  0  0  0  0  0
   -1.3953   -0.0930    0.5518 C   0  0  0  0  0  0  0  0  0  0  0  0
    2.9829    0.0214   -1.1382 N   0  0  0  0  0  0  0  0  0  0  0  0
    4.4364   -0.1375   -1.1823 C   0  0  3  0  0  0  0  0  0  0  0  0
    4.7941   -1.6082   -1.3938 C   0  0  0  0  0  0  0  0  0  0  0  0
    4.9284   -2.1688   -2.6710 C   0  0  0  0  0  0  0  0  0  0  0  0
    5.2595   -3.5101   -2.7926 C   0  0  0  0  0  0  0  0  0  0  0  0
    5.4273   -4.3415   -1.7459 N   0  0  0  0  0  0  0  0  0  0  0  0
    5.2652   -3.8038   -0.5185 C   0  0  0  0  0  0  0  0  0  0  0  0
    4.9614   -2.4663   -0.2943 C   0  0  0  0  0  0  0  0  0  0  0  0
    5.0596    0.8104   -2.2222 C   0  0  0  0  0  0  0  0  0  0  0  0
    6.3839    1.2616   -2.0601 C   0  0  0  0  0  0  0  0  0  0  0  0
    6.9731    2.1120   -3.0059 C   0  0  0  0  0  0  0  0  0  0  0  0
    6.2466    2.5146   -4.1192 C   0  0  0  0  0  0  0  0  0  0  0  0
    6.8077    3.3285   -5.0220 F   0  0  0  0  0  0  0  0  0  0  0  0
    4.9446    2.0804   -4.3093 C   0  0  0  0  0  0  0  0  0  0  0  0
    4.3562    1.2301   -3.3708 C   0  0  0  0  0  0  0  0  0  0  0  0
    0.5761   -0.0016   -1.1245 H   0  0  0  0  0  0  0  0  0  0  0  0
    1.1828    0.5685    2.5593 H   0  0  0  0  0  0  0  0  0  0  0  0
   -3.7039    0.8783    6.8487 H   0  0  0  0  0  0  0  0  0  0  0  0
   -5.6387   -0.6981    6.5572 H   0  0  0  0  0  0  0  0  0  0  0  0
   -5.7630   -1.9122    4.3612 H   0  0  0  0  0  0  0  0  0  0  0  0
   -1.7404   -0.2473   -0.4678 H   0  0  0  0  0  0  0  0  0  0  0  0
    2.4827   -0.1390   -1.9938 H   0  0  0  0  0  0  0  0  0  0  0  0
    4.8365    0.1702   -0.2049 H   0  0  0  0  0  0  0  0  0  0  0  0
    4.7962   -1.5801   -3.5709 H   0  0  0  0  0  0  0  0  0  0  0  0
    5.4034   -3.9621   -3.7700 H   0  0  0  0  0  0  0  0  0  0  0  0
    5.3866   -4.4998    0.3072 H   0  0  0  0  0  0  0  0  0  0  0  0
    4.8499   -2.1102    0.7256 H   0  0  0  0  0  0  0  0  0  0  0  0
    6.9716    0.9572   -1.1952 H   0  0  0  0  0  0  0  0  0  0  0  0
    7.9926    2.4642   -2.8811 H   0  0  0  0  0  0  0  0  0  0  0  0
    4.3912    2.4053   -5.1847 H   0  0  0  0  0  0  0  0  0  0  0  0
    3.3411    0.9011   -3.5639 H   0  0  0  0  0  0  0  0  0  0  0  0
  1  2  2  0  0  0  0
  2  3  1  0  0  0  0
  2 16  1  0  0  0  0
  3  4  1  0  0  0  0
  3 31  1  0  0  0  0
  4  5  2  0  0  0  0
  4 15  1  0  0  0  0
  5  6  1  0  0  0  0
  5 32  1  0  0  0  0
  6  7  2  0  0  0  0
  7  8  1  0  0  0  0
  7 14  1  0  0  0  0
  8  9  2  0  0  0  0
  8 13  1  0  0  0  0
  9 10  1  0  0  0  0
 10 11  2  0  0  0  0
 10 33  1  0  0  0  0
 11 12  1  0  0  0  0
 11 34  1  0  0  0  0
 12 13  2  0  0  0  0
 12 35  1  0  0  0  0
 14 15  2  0  0  0  0
 15 36  1  0  0  0  0
 16 17  1  0  0  0  0
 16 37  1  0  0  0  0
 17 18  1  0  0  0  0
 17 24  1  0  0  0  0
 17 38  1  0  0  0  0
 18 19  2  0  0  0  0
 18 23  1  0  0  0  0
 19 20  1  0  0  0  0
 19 39  1  0  0  0  0
 20 21  2  0  0  0  0
 20 40  1  0  0  0  0
 21 22  1  0  0  0  0
 22 23  2  0  0  0  0
 22 41  1  0  0  0  0
 23 42  1  0  0  0  0
 24 25  2  0  0  0  0
 24 30  1  0  0  0  0
 25 26  1  0  0  0  0
 25 43  1  0  0  0  0
 26 27  2  0  0  0  0
 26 44  1  0  0  0  0
 27 28  1  0  0  0  0
 27 29  1  0  0  0  0
 29 30  2  0  0  0  0
 29 45  1  0  0  0  0
 30 46  1  0  0  0  0
M  END
$$$$
