
 OpenBabel01122422493D

 49 52  0  0  0  0  0  0  0  0999 V2000
    1.1206   -0.2546   -0.0845 O   0  0  0  0  0  0  0  0  0  0  0  0
    2.3458   -0.1595   -0.0756 C   0  0  0  0  0  0  0  0  0  0  0  0
    3.0582    0.3415   -1.1405 N   0  0  0  0  0  0  0  0  0  0  0  0
    2.3630    0.8106   -2.3267 C   0  0  0  0  0  0  0  0  0  0  0  0
    3.3221    1.3753   -3.3222 C   0  0  0  0  0  0  0  0  0  0  0  0
    3.4410    0.8320   -4.5425 N   0  0  0  0  0  0  0  0  0  0  0  0
    4.3521    1.6220   -5.2243 O   0  0  0  0  0  0  0  0  0  0  0  0
    4.7800    2.6245   -4.4123 C   0  0  0  0  0  0  0  0  0  0  0  0
    5.7617    3.5821   -4.9815 C   0  0  0  0  0  0  0  0  0  0  0  0
    7.0467    3.0270   -4.7134 O   0  0  0  0  0  0  0  0  0  0  0  0
    8.1434    3.7637   -5.0660 C   0  0  0  0  0  0  0  0  0  0  0  0
    9.3624    3.1279   -4.8056 C   0  0  0  0  0  0  0  0  0  0  0  0
   10.5756    3.7601   -5.0900 C   0  0  0  0  0  0  0  0  0  0  0  0
   10.5816    5.0401   -5.6402 C   0  0  0  0  0  0  0  0  0  0  0  0
    9.3736    5.6810   -5.9102 C   0  0  0  0  0  0  0  0  0  0  0  0
    8.1650    5.0427   -5.6261 C   0  0  0  0  0  0  0  0  0  0  0  0
    7.0319    5.7041   -5.9034 F   0  0  0  0  0  0  0  0  0  0  0  0
    4.1653    2.5044   -3.1899 C   0  0  0  0  0  0  0  0  0  0  0  0
    3.1560   -0.5773    1.1205 C   0  0  0  0  0  0  0  0  0  0  0  0
    2.5929   -1.4104    2.0121 C   0  0  0  0  0  0  0  0  0  0  0  0
    3.1998   -1.7269    3.2318 N   0  0  0  0  0  0  0  0  0  0  0  0
    2.5248   -2.5473    4.1883 C   0  0  0  0  0  0  0  0  0  0  0  0
    2.2634   -2.0652    5.4773 C   0  0  0  0  0  0  0  0  0  0  0  0
    1.5510   -2.8523    6.3769 C   0  0  0  0  0  0  0  0  0  0  0  0
    1.2511   -2.3632    7.5877 F   0  0  0  0  0  0  0  0  0  0  0  0
    1.1290   -4.1320    6.0362 C   0  0  0  0  0  0  0  0  0  0  0  0
    1.4157   -4.6330    4.7677 C   0  0  0  0  0  0  0  0  0  0  0  0
    2.0923   -3.8349    3.8384 C   0  0  0  0  0  0  0  0  0  0  0  0
    4.4453   -1.1822    3.5878 C   0  0  0  0  0  0  0  0  0  0  0  0
    5.0569   -1.3834    4.6347 O   0  0  0  0  0  0  0  0  0  0  0  0
    5.0828   -0.3052    2.5673 C   0  0  0  0  0  0  0  0  0  0  0  0
    4.4585   -0.0168    1.4195 C   0  0  0  0  0  0  0  0  0  0  0  0
    4.0580    0.2128   -1.1940 H   0  0  0  0  0  0  0  0  0  0  0  0
    1.6522    1.5872   -2.0201 H   0  0  0  0  0  0  0  0  0  0  0  0
    1.7877   -0.0229   -2.7450 H   0  0  0  0  0  0  0  0  0  0  0  0
    5.6417    4.5464   -4.4755 H   0  0  0  0  0  0  0  0  0  0  0  0
    5.6060    3.6965   -6.0606 H   0  0  0  0  0  0  0  0  0  0  0  0
    9.3664    2.1286   -4.3758 H   0  0  0  0  0  0  0  0  0  0  0  0
   11.5135    3.2516   -4.8795 H   0  0  0  0  0  0  0  0  0  0  0  0
   11.5247    5.5355   -5.8579 H   0  0  0  0  0  0  0  0  0  0  0  0
    9.3645    6.6784   -6.3396 H   0  0  0  0  0  0  0  0  0  0  0  0
    4.2919    3.1486   -2.3322 H   0  0  0  0  0  0  0  0  0  0  0  0
    1.5954   -1.8231    1.8541 H   0  0  0  0  0  0  0  0  0  0  0  0
    2.5722   -1.0702    5.7811 H   0  0  0  0  0  0  0  0  0  0  0  0
    0.5830   -4.7280    6.7611 H   0  0  0  0  0  0  0  0  0  0  0  0
    1.1150   -5.6435    4.5030 H   0  0  0  0  0  0  0  0  0  0  0  0
    2.3248   -4.2450    2.8588 H   0  0  0  0  0  0  0  0  0  0  0  0
    6.0577    0.0917    2.8196 H   0  0  0  0  0  0  0  0  0  0  0  0
    4.9286    0.6630    0.7185 H   0  0  0  0  0  0  0  0  0  0  0  0
  1  2  2  0  0  0  0
  2  3  1  0  0  0  0
  2 19  1  0  0  0  0
  3  4  1  0  0  0  0
  3 33  1  0  0  0  0
  4  5  1  0  0  0  0
  4 34  1  0  0  0  0
  4 35  1  0  0  0  0
  5  6  2  0  0  0  0
  5 18  1  0  0  0  0
  6  7  1  0  0  0  0
  7  8  1  0  0  0  0
  8  9  1  0  0  0  0
  8 18  2  0  0  0  0
  9 10  1  0  0  0  0
  9 36  1  0  0  0  0
  9 37  1  0  0  0  0
 10 11  1  0  0  0  0
 11 12  2  0  0  0  0
 11 16  1  0  0  0  0
 12 13  1  0  0  0  0
 12 38  1  0  0  0  0
 13 14  2  0  0  0  0
 13 39  1  0  0  0  0
 14 15  1  0  0  0  0
 14 40  1  0  0  0  0
 15 16  2  0  0  0  0
 15 41  1  0  0  0  0
 16 17  1  0  0  0  0
 18 42  1  0  0  0  0
 19 20  2  0  0  0  0
 19 32  1  0  0  0  0
 20 21  1  0  0  0  0
 20 43  1  0  0  0  0
 21 22  1  0  0  0  0
 21 29  1  0  0  0  0
 22 23  2  0  0  0  0
 22 28  1  0  0  0  0
 23 24  1  0  0  0  0
 23 44  1  0  0  0  0
 24 25  1  0  0  0  0
 24 26  2  0  0  0  0
 26 27  1  0  0  0  0
 26 45  1  0  0  0  0
 27 28  2  0  0  0  0
 27 46  1  0  0  0  0
 28 47  1  0  0  0  0
 29 30  2  0  0  0  0
 29 31  1  0  0  0  0
 31 32  2  0  0  0  0
 31 48  1  0  0  0  0
 32 49  1  0  0  0  0
M  END
$$$$
