
 OpenBabel01122422493D

 45 48  0  0  0  0  0  0  0  0999 V2000
    0.8234   -0.1544   -0.0184 O   0  0  0  0  0  0  0  0  0  0  0  0
    2.0259    0.0045   -0.1639 C   0  0  0  0  0  0  0  0  0  0  0  0
    2.7190    1.2064   -0.2503 N   0  0  0  0  0  0  0  0  0  0  0  0
    2.1204    2.4708   -0.0445 C   0  0  0  0  0  0  0  0  0  0  0  0
    0.9164    2.6049    0.6505 C   0  0  0  0  0  0  0  0  0  0  0  0
    0.2940    3.8442    0.7809 C   0  0  0  0  0  0  0  0  0  0  0  0
    0.8979    4.9914    0.2731 C   0  0  0  0  0  0  0  0  0  0  0  0
    0.3250    6.2433    0.3470 O   0  0  0  0  0  0  0  0  0  0  0  0
   -0.4232    6.5517    1.4800 C   0  0  0  0  0  0  0  0  0  0  0  0
   -1.4645    7.4549    1.3222 C   0  0  0  0  0  0  0  0  0  0  0  0
   -2.2368    7.7716    2.4380 C   0  0  0  0  0  0  0  0  0  0  0  0
   -1.9446    7.1780    3.6623 C   0  0  0  0  0  0  0  0  0  0  0  0
   -0.8738    6.3033    3.7267 C   0  0  0  0  0  0  0  0  0  0  0  0
   -0.0958    5.9949    2.6697 N   0  0  0  0  0  0  0  0  0  0  0  0
    2.1121    4.8755   -0.4098 C   0  0  0  0  0  0  0  0  0  0  0  0
    2.7324    3.6216   -0.5538 C   0  0  0  0  0  0  0  0  0  0  0  0
    2.8463   -1.2382   -0.3897 C   0  0  0  0  0  0  0  0  0  0  0  0
    3.8110   -1.1792   -1.2704 N   0  0  0  0  0  0  0  0  0  0  0  0
    4.4673   -2.3566   -1.5694 N   0  0  0  0  0  0  0  0  0  0  0  0
    5.6249   -2.2141   -2.4028 C   0  0  0  0  0  0  0  0  0  0  0  0
    5.7806   -1.0773   -3.2213 C   0  0  0  0  0  0  0  0  0  0  0  0
    6.9167   -0.8980   -4.0194 C   0  0  0  0  0  0  0  0  0  0  0  0
    7.9300   -1.8517   -4.0169 C   0  0  0  0  0  0  0  0  0  0  0  0
    7.8031   -2.9866   -3.2231 C   0  0  0  0  0  0  0  0  0  0  0  0
    6.6674   -3.1607   -2.4308 C   0  0  0  0  0  0  0  0  0  0  0  0
    6.6297   -4.2561   -1.6552 F   0  0  0  0  0  0  0  0  0  0  0  0
    3.9848   -3.5845   -1.1495 C   0  0  0  0  0  0  0  0  0  0  0  0
    3.0232   -3.7629   -0.2429 C   0  0  0  0  0  0  0  0  0  0  0  0
    2.5006   -2.5245    0.3351 C   0  0  0  0  0  0  0  0  0  0  0  0
    1.8412   -2.5285    1.3612 O   0  0  0  0  0  0  0  0  0  0  0  0
    3.6552    1.1691   -0.6373 H   0  0  0  0  0  0  0  0  0  0  0  0
    0.4311    1.7566    1.1233 H   0  0  0  0  0  0  0  0  0  0  0  0
   -0.6578    3.8889    1.3015 H   0  0  0  0  0  0  0  0  0  0  0  0
   -1.6790    7.8914    0.3537 H   0  0  0  0  0  0  0  0  0  0  0  0
   -3.0645    8.4703    2.3539 H   0  0  0  0  0  0  0  0  0  0  0  0
   -2.5345    7.3918    4.5467 H   0  0  0  0  0  0  0  0  0  0  0  0
   -0.6066    5.8066    4.6549 H   0  0  0  0  0  0  0  0  0  0  0  0
    2.5756    5.7620   -0.8352 H   0  0  0  0  0  0  0  0  0  0  0  0
    3.6721    3.5638   -1.0964 H   0  0  0  0  0  0  0  0  0  0  0  0
    5.0009   -0.3197   -3.2550 H   0  0  0  0  0  0  0  0  0  0  0  0
    7.0062   -0.0097   -4.6403 H   0  0  0  0  0  0  0  0  0  0  0  0
    8.8177   -1.7095   -4.6275 H   0  0  0  0  0  0  0  0  0  0  0  0
    8.5864   -3.7377   -3.2011 H   0  0  0  0  0  0  0  0  0  0  0  0
    4.4350   -4.4530   -1.6184 H   0  0  0  0  0  0  0  0  0  0  0  0
    2.6635   -4.7176    0.1059 H   0  0  0  0  0  0  0  0  0  0  0  0
  1  2  2  0  0  0  0
  2  3  1  0  0  0  0
  2 17  1  0  0  0  0
  3  4  1  0  0  0  0
  3 31  1  0  0  0  0
  4  5  2  0  0  0  0
  4 16  1  0  0  0  0
  5  6  1  0  0  0  0
  5 32  1  0  0  0  0
  6  7  2  0  0  0  0
  6 33  1  0  0  0  0
  7  8  1  0  0  0  0
  7 15  1  0  0  0  0
  8  9  1  0  0  0  0
  9 10  2  0  0  0  0
  9 14  1  0  0  0  0
 10 11  1  0  0  0  0
 10 34  1  0  0  0  0
 11 12  2  0  0  0  0
 11 35  1  0  0  0  0
 12 13  1  0  0  0  0
 12 36  1  0  0  0  0
 13 14  2  0  0  0  0
 13 37  1  0  0  0  0
 15 16  2  0  0  0  0
 15 38  1  0  0  0  0
 16 39  1  0  0  0  0
 17 18  2  0  0  0  0
 17 29  1  0  0  0  0
 18 19  1  0  0  0  0
 19 20  1  0  0  0  0
 19 27  1  0  0  0  0
 20 21  2  0  0  0  0
 20 25  1  0  0  0  0
 21 22  1  0  0  0  0
 21 40  1  0  0  0  0
 22 23  2  0  0  0  0
 22 41  1  0  0  0  0
 23 24  1  0  0  0  0
 23 42  1  0  0  0  0
 24 25  2  0  0  0  0
 24 43  1  0  0  0  0
 25 26  1  0  0  0  0
 27 28  2  0  0  0  0
 27 44  1  0  0  0  0
 28 29  1  0  0  0  0
 28 45  1  0  0  0  0
 29 30  2  0  0  0  0
M  END
$$$$
