
 OpenBabel01122422493D

 50 53  0  0  0  0  0  0  0  0999 V2000
    8.0141   -5.8473   -0.0408 N   0  0  0  0  0  0  0  0  0  0  0  0
    7.1579   -5.2263   -0.5182 C   0  0  0  0  0  0  0  0  0  0  0  0
    6.0970   -4.4545   -1.0963 C   0  0  0  0  0  0  0  0  0  0  0  0
    4.9397   -4.1888   -0.3512 C   0  0  0  0  0  0  0  0  0  0  0  0
    3.8996   -3.4169   -0.8915 C   0  0  0  0  0  0  0  0  0  0  0  0
    2.6787   -3.0873   -0.0563 C   0  0  0  0  0  0  0  0  0  0  0  0
    1.5314   -4.0341   -0.2257 C   0  0  0  0  0  0  0  0  0  0  0  0
    0.5368   -4.0111   -1.1836 C   0  0  0  0  0  0  0  0  0  0  0  0
   -0.4312   -4.9816   -1.0675 N   0  0  0  0  0  0  0  0  0  0  0  0
   -0.1879   -5.7316   -0.0243 C   0  0  0  0  0  0  0  0  0  0  0  0
   -0.9191   -6.7974    0.4442 N   0  0  0  0  0  0  0  0  0  0  0  0
   -1.9044   -7.3664   -0.3391 C   0  0  0  0  0  0  0  0  0  0  0  0
   -2.1658   -7.0800   -1.5063 O   0  0  0  0  0  0  0  0  0  0  0  0
   -2.6983   -8.4746    0.2695 C   0  0  0  0  0  0  0  0  0  0  0  0
   -2.9531   -8.5537    1.6360 C   0  0  0  0  0  0  0  0  0  0  0  0
   -3.7687   -9.5800    2.1378 C   0  0  0  0  0  0  0  0  0  0  0  0
   -4.3505  -10.5374    1.2976 C   0  0  0  0  0  0  0  0  0  0  0  0
   -5.1891  -11.5850    1.7603 N   0  0  0  0  0  0  0  0  0  0  0  0
   -5.5282  -11.8279    3.0796 C   0  0  0  0  0  0  0  0  0  0  0  0
   -5.1802  -11.1470    4.0406 O   0  0  0  0  0  0  0  0  0  0  0  0
   -6.4084  -13.0195    3.3253 C   0  0  0  0  0  0  0  0  0  0  0  0
   -7.1235  -12.9900    4.4662 C   0  0  0  0  0  0  0  0  0  0  0  0
   -7.8758  -14.0684    4.8602 N   0  0  0  0  0  0  0  0  0  0  0  0
   -7.9426  -15.2485    4.1642 C   0  0  0  0  0  0  0  0  0  0  0  0
   -8.5913  -16.2162    4.5449 O   0  0  0  0  0  0  0  0  0  0  0  0
   -7.1543  -15.2941    2.9023 C   0  0  0  0  0  0  0  0  0  0  0  0
   -6.4326  -14.2281    2.5183 C   0  0  0  0  0  0  0  0  0  0  0  0
   -4.0962  -10.4501   -0.0743 C   0  0  0  0  0  0  0  0  0  0  0  0
   -3.2796   -9.4276   -0.5824 C   0  0  0  0  0  0  0  0  0  0  0  0
    1.2030   -5.3154    0.8830 S   0  0  0  0  0  0  0  0  0  0  0  0
    4.0332   -2.9325   -2.2028 C   0  0  0  0  0  0  0  0  0  0  0  0
    5.1854   -3.1993   -2.9490 C   0  0  0  0  0  0  0  0  0  0  0  0
    6.2185   -3.9558   -2.3962 C   0  0  0  0  0  0  0  0  0  0  0  0
    4.8558   -4.5734    0.6645 H   0  0  0  0  0  0  0  0  0  0  0  0
    2.3430   -2.0750   -0.3215 H   0  0  0  0  0  0  0  0  0  0  0  0
    2.9710   -3.0180    0.9991 H   0  0  0  0  0  0  0  0  0  0  0  0
    0.4577   -3.2930   -1.9904 H   0  0  0  0  0  0  0  0  0  0  0  0
   -0.6385   -7.1969    1.3259 H   0  0  0  0  0  0  0  0  0  0  0  0
   -2.5745   -7.8120    2.3333 H   0  0  0  0  0  0  0  0  0  0  0  0
   -3.9471   -9.5749    3.2084 H   0  0  0  0  0  0  0  0  0  0  0  0
   -5.5882  -12.1840    1.0473 H   0  0  0  0  0  0  0  0  0  0  0  0
   -7.1264  -12.1389    5.1426 H   0  0  0  0  0  0  0  0  0  0  0  0
   -8.3853  -14.0387    5.7360 H   0  0  0  0  0  0  0  0  0  0  0  0
   -7.1863  -16.2240    2.3504 H   0  0  0  0  0  0  0  0  0  0  0  0
   -5.8345  -14.2878    1.6170 H   0  0  0  0  0  0  0  0  0  0  0  0
   -4.5289  -11.1583   -0.7762 H   0  0  0  0  0  0  0  0  0  0  0  0
   -3.1066   -9.3667   -1.6569 H   0  0  0  0  0  0  0  0  0  0  0  0
    3.2464   -2.3295   -2.6524 H   0  0  0  0  0  0  0  0  0  0  0  0
    5.2806   -2.8111   -3.9613 H   0  0  0  0  0  0  0  0  0  0  0  0
    7.1143   -4.1505   -2.9835 H   0  0  0  0  0  0  0  0  0  0  0  0
  1  2  3  0  0  0  0
  2  3  1  0  0  0  0
  3  4  2  0  0  0  0
  3 33  1  0  0  0  0
  4  5  1  0  0  0  0
  4 34  1  0  0  0  0
  5  6  1  0  0  0  0
  5 31  2  0  0  0  0
  6  7  1  0  0  0  0
  6 35  1  0  0  0  0
  6 36  1  0  0  0  0
  7  8  2  0  0  0  0
  7 30  1  0  0  0  0
  8  9  1  0  0  0  0
  8 37  1  0  0  0  0
  9 10  2  0  0  0  0
 10 11  1  0  0  0  0
 10 30  1  0  0  0  0
 11 12  1  0  0  0  0
 11 38  1  0  0  0  0
 12 13  2  0  0  0  0
 12 14  1  0  0  0  0
 14 15  2  0  0  0  0
 14 29  1  0  0  0  0
 15 16  1  0  0  0  0
 15 39  1  0  0  0  0
 16 17  2  0  0  0  0
 16 40  1  0  0  0  0
 17 18  1  0  0  0  0
 17 28  1  0  0  0  0
 18 19  1  0  0  0  0
 18 41  1  0  0  0  0
 19 20  2  0  0  0  0
 19 21  1  0  0  0  0
 21 22  2  0  0  0  0
 21 27  1  0  0  0  0
 22 23  1  0  0  0  0
 22 42  1  0  0  0  0
 23 24  1  0  0  0  0
 23 43  1  0  0  0  0
 24 25  2  0  0  0  0
 24 26  1  0  0  0  0
 26 27  2  0  0  0  0
 26 44  1  0  0  0  0
 27 45  1  0  0  0  0
 28 29  2  0  0  0  0
 28 46  1  0  0  0  0
 29 47  1  0  0  0  0
 31 32  1  0  0  0  0
 31 48  1  0  0  0  0
 32 33  2  0  0  0  0
 32 49  1  0  0  0  0
 33 50  1  0  0  0  0
M  END
$$$$
