
 OpenBabel01122422493D

 45 48  0  0  0  0  0  0  0  0999 V2000
    0.9531    0.0840   -0.0934 O   0  0  0  0  0  0  0  0  0  0  0  0
    2.1539   -0.0582    0.0762 C   0  0  0  0  0  0  0  0  0  0  0  0
    2.8681   -1.2373   -0.0246 N   0  0  0  0  0  0  0  0  0  0  0  0
    2.1930   -2.4465   -0.2583 C   0  0  0  0  0  0  0  0  0  0  0  0
    1.2901   -2.7955    0.6933 N   0  0  0  0  0  0  0  0  0  0  0  0
    0.7085   -3.9927    0.5621 C   0  0  0  0  0  0  0  0  0  0  0  0
   -0.1654   -4.2989    1.5525 O   0  0  0  0  0  0  0  0  0  0  0  0
    0.9455   -4.8812   -0.4545 C   0  0  0  0  0  0  0  0  0  0  0  0
    1.8560   -4.4967   -1.4339 C   0  0  0  0  0  0  0  0  0  0  0  0
    2.5288   -3.2597   -1.3641 C   0  0  0  0  0  0  0  0  0  0  0  0
    3.4593   -2.8636   -2.4581 C   0  0  0  0  0  0  0  0  0  0  0  0
    3.5324   -1.5426   -2.9404 C   0  0  0  0  0  0  0  0  0  0  0  0
    4.4183   -1.1756   -3.9570 C   0  0  0  0  0  0  0  0  0  0  0  0
    5.2117   -2.1379   -4.5678 C   0  0  0  0  0  0  0  0  0  0  0  0
    5.1282   -3.4616   -4.1508 C   0  0  0  0  0  0  0  0  0  0  0  0
    4.2761   -3.8150   -3.0989 C   0  0  0  0  0  0  0  0  0  0  0  0
    3.0299    1.1664    0.2922 C   0  0  0  0  0  0  0  0  0  0  0  0
    4.2506    1.1312   -0.1921 N   0  0  0  0  0  0  0  0  0  0  0  0
    5.0650    2.2265    0.0432 N   0  0  0  0  0  0  0  0  0  0  0  0
    6.3825    2.1818   -0.5256 C   0  0  0  0  0  0  0  0  0  0  0  0
    7.1142    3.3642   -0.7800 C   0  0  0  0  0  0  0  0  0  0  0  0
    8.4318    3.3237   -1.2445 C   0  0  0  0  0  0  0  0  0  0  0  0
    9.0343    2.0968   -1.4783 C   0  0  0  0  0  0  0  0  0  0  0  0
   10.3070    2.0537   -1.8863 F   0  0  0  0  0  0  0  0  0  0  0  0
    8.3312    0.9153   -1.2778 C   0  0  0  0  0  0  0  0  0  0  0  0
    7.0105    0.9603   -0.8185 C   0  0  0  0  0  0  0  0  0  0  0  0
    4.6884    3.2413    0.9041 C   0  0  0  0  0  0  0  0  0  0  0  0
    3.4817    3.3817    1.4479 C   0  0  0  0  0  0  0  0  0  0  0  0
    2.5075    2.3579    1.0717 C   0  0  0  0  0  0  0  0  0  0  0  0
    1.3398    2.4624    1.4095 O   0  0  0  0  0  0  0  0  0  0  0  0
    3.8135   -1.1364   -0.3735 H   0  0  0  0  0  0  0  0  0  0  0  0
   -0.1278   -3.4738    2.0704 H   0  0  0  0  0  0  0  0  0  0  0  0
    0.4303   -5.8335   -0.4954 H   0  0  0  0  0  0  0  0  0  0  0  0
    2.0175   -5.1696   -2.2729 H   0  0  0  0  0  0  0  0  0  0  0  0
    2.8797   -0.7658   -2.5495 H   0  0  0  0  0  0  0  0  0  0  0  0
    4.4686   -0.1390   -4.2819 H   0  0  0  0  0  0  0  0  0  0  0  0
    5.8808   -1.8595   -5.3772 H   0  0  0  0  0  0  0  0  0  0  0  0
    5.7238   -4.2249   -4.6452 H   0  0  0  0  0  0  0  0  0  0  0  0
    4.2546   -4.8601   -2.7954 H   0  0  0  0  0  0  0  0  0  0  0  0
    6.6608    4.3417   -0.6334 H   0  0  0  0  0  0  0  0  0  0  0  0
    8.9903    4.2424   -1.4228 H   0  0  0  0  0  0  0  0  0  0  0  0
    8.8233   -0.0342   -1.4675 H   0  0  0  0  0  0  0  0  0  0  0  0
    6.4859    0.0212   -0.6549 H   0  0  0  0  0  0  0  0  0  0  0  0
    5.4676    3.9503    1.1678 H   0  0  0  0  0  0  0  0  0  0  0  0
    3.1926    4.1739    2.1198 H   0  0  0  0  0  0  0  0  0  0  0  0
  1  2  2  0  0  0  0
  2  3  1  0  0  0  0
  2 17  1  0  0  0  0
  3  4  1  0  0  0  0
  3 31  1  0  0  0  0
  4  5  2  0  0  0  0
  4 10  1  0  0  0  0
  5  6  1  0  0  0  0
  6  7  1  0  0  0  0
  6  8  2  0  0  0  0
  7 32  1  0  0  0  0
  8  9  1  0  0  0  0
  8 33  1  0  0  0  0
  9 10  2  0  0  0  0
  9 34  1  0  0  0  0
 10 11  1  0  0  0  0
 11 12  2  0  0  0  0
 11 16  1  0  0  0  0
 12 13  1  0  0  0  0
 12 35  1  0  0  0  0
 13 14  2  0  0  0  0
 13 36  1  0  0  0  0
 14 15  1  0  0  0  0
 14 37  1  0  0  0  0
 15 16  2  0  0  0  0
 15 38  1  0  0  0  0
 16 39  1  0  0  0  0
 17 18  2  0  0  0  0
 17 29  1  0  0  0  0
 18 19  1  0  0  0  0
 19 20  1  0  0  0  0
 19 27  1  0  0  0  0
 20 21  2  0  0  0  0
 20 26  1  0  0  0  0
 21 22  1  0  0  0  0
 21 40  1  0  0  0  0
 22 23  2  0  0  0  0
 22 41  1  0  0  0  0
 23 24  1  0  0  0  0
 23 25  1  0  0  0  0
 25 26  2  0  0  0  0
 25 42  1  0  0  0  0
 26 43  1  0  0  0  0
 27 28  2  0  0  0  0
 27 44  1  0  0  0  0
 28 29  1  0  0  0  0
 28 45  1  0  0  0  0
 29 30  2  0  0  0  0
M  END
$$$$
