
 OpenBabel01122422493D

 48 51  0  0  1  0  0  0  0  0999 V2000
   -0.9305   -1.1401    2.0820 C   0  0  0  0  0  0  0  0  0  0  0  0
   -0.1521   -0.5341    1.0290 N   0  0  0  0  0  0  0  0  0  0  0  0
   -0.2822   -0.7524   -0.3090 C   0  0  0  0  0  0  0  0  0  0  0  0
    0.6620    0.0407   -0.9134 C   0  0  0  0  0  0  0  0  0  0  0  0
    1.3253    0.7141    0.1489 C   0  0  0  0  0  0  0  0  0  0  0  0
    2.4498    1.7222    0.0137 C   0  0  3  0  0  0  0  0  0  0  0  0
    2.4797    2.6508    1.1189 N   0  0  0  0  0  0  0  0  0  0  0  0
    1.6800    3.7683    1.1133 C   0  0  0  0  0  0  0  0  0  0  0  0
    1.0315    4.1685    0.1563 O   0  0  0  0  0  0  0  0  0  0  0  0
    1.6516    4.5467    2.4338 C   0  0  0  0  0  0  0  0  0  0  0  0
    2.3468    4.1009    3.4329 N   0  0  0  0  0  0  0  0  0  0  0  0
    2.3257    4.8121    4.6221 N   0  0  0  0  0  0  0  0  0  0  0  0
    3.1567    4.2496    5.6550 C   0  0  0  0  0  0  0  0  0  0  0  0
    2.9689    4.5693    7.0116 C   0  0  0  0  0  0  0  0  0  0  0  0
    3.7918    4.0366    8.0135 C   0  0  0  0  0  0  0  0  0  0  0  0
    4.8271    3.1701    7.6835 C   0  0  0  0  0  0  0  0  0  0  0  0
    5.0303    2.8276    6.3517 C   0  0  0  0  0  0  0  0  0  0  0  0
    4.2021    3.3537    5.3560 C   0  0  0  0  0  0  0  0  0  0  0  0
    4.4910    3.0017    4.0920 F   0  0  0  0  0  0  0  0  0  0  0  0
    1.5735    5.9836    4.7920 C   0  0  0  0  0  0  0  0  0  0  0  0
    1.5041    6.6957    5.7925 O   0  0  0  0  0  0  0  0  0  0  0  0
    0.8131    6.4431    3.6064 C   0  0  0  0  0  0  0  0  0  0  0  0
    0.8347    5.7711    2.4567 C   0  0  0  0  0  0  0  0  0  0  0  0
    3.7359    0.9179   -0.1156 C   0  0  0  0  0  0  0  0  0  0  0  0
    4.5412    1.0910   -1.2591 C   0  0  0  0  0  0  0  0  0  0  0  0
    5.6947    0.3260   -1.4459 C   0  0  0  0  0  0  0  0  0  0  0  0
    6.0593   -0.6090   -0.4866 C   0  0  0  0  0  0  0  0  0  0  0  0
    7.1492   -1.3634   -0.6815 F   0  0  0  0  0  0  0  0  0  0  0  0
    5.3077   -0.7750    0.6694 C   0  0  0  0  0  0  0  0  0  0  0  0
    4.1555   -0.0074    0.8607 C   0  0  0  0  0  0  0  0  0  0  0  0
    0.8139    0.3504    1.3418 N   0  0  0  0  0  0  0  0  0  0  0  0
   -1.6684   -1.8181    1.6452 H   0  0  0  0  0  0  0  0  0  0  0  0
   -1.4367   -0.3462    2.6364 H   0  0  0  0  0  0  0  0  0  0  0  0
   -0.2537   -1.6968    2.7347 H   0  0  0  0  0  0  0  0  0  0  0  0
   -1.0177   -1.4339   -0.7132 H   0  0  0  0  0  0  0  0  0  0  0  0
    0.8535    0.1289   -1.9738 H   0  0  0  0  0  0  0  0  0  0  0  0
    2.2781    2.2920   -0.9087 H   0  0  0  0  0  0  0  0  0  0  0  0
    2.7918    2.3190    2.0256 H   0  0  0  0  0  0  0  0  0  0  0  0
    2.1612    5.2188    7.3369 H   0  0  0  0  0  0  0  0  0  0  0  0
    3.6157    4.3060    9.0527 H   0  0  0  0  0  0  0  0  0  0  0  0
    5.4715    2.7652    8.4592 H   0  0  0  0  0  0  0  0  0  0  0  0
    5.8388    2.1600    6.0699 H   0  0  0  0  0  0  0  0  0  0  0  0
    0.2501    7.3608    3.7261 H   0  0  0  0  0  0  0  0  0  0  0  0
    0.3056    6.0913    1.5709 H   0  0  0  0  0  0  0  0  0  0  0  0
    4.2673    1.8191   -2.0205 H   0  0  0  0  0  0  0  0  0  0  0  0
    6.3042    0.4480   -2.3355 H   0  0  0  0  0  0  0  0  0  0  0  0
    5.6148   -1.5072    1.4090 H   0  0  0  0  0  0  0  0  0  0  0  0
    3.5679   -0.1563    1.7657 H   0  0  0  0  0  0  0  0  0  0  0  0
  1  2  1  0  0  0  0
  1 32  1  0  0  0  0
  1 33  1  0  0  0  0
  1 34  1  0  0  0  0
  2  3  1  0  0  0  0
  2 31  1  0  0  0  0
  3  4  2  0  0  0  0
  3 35  1  0  0  0  0
  4  5  1  0  0  0  0
  4 36  1  0  0  0  0
  5  6  1  0  0  0  0
  5 31  2  0  0  0  0
  6  7  1  0  0  0  0
  6 24  1  0  0  0  0
  6 37  1  0  0  0  0
  7  8  1  0  0  0  0
  7 38  1  0  0  0  0
  8  9  2  0  0  0  0
  8 10  1  0  0  0  0
 10 11  2  0  0  0  0
 10 23  1  0  0  0  0
 11 12  1  0  0  0  0
 12 13  1  0  0  0  0
 12 20  1  0  0  0  0
 13 14  2  0  0  0  0
 13 18  1  0  0  0  0
 14 15  1  0  0  0  0
 14 39  1  0  0  0  0
 15 16  2  0  0  0  0
 15 40  1  0  0  0  0
 16 17  1  0  0  0  0
 16 41  1  0  0  0  0
 17 18  2  0  0  0  0
 17 42  1  0  0  0  0
 18 19  1  0  0  0  0
 20 21  2  0  0  0  0
 20 22  1  0  0  0  0
 22 23  2  0  0  0  0
 22 43  1  0  0  0  0
 23 44  1  0  0  0  0
 24 25  2  0  0  0  0
 24 30  1  0  0  0  0
 25 26  1  0  0  0  0
 25 45  1  0  0  0  0
 26 27  2  0  0  0  0
 26 46  1  0  0  0  0
 27 28  1  0  0  0  0
 27 29  1  0  0  0  0
 29 30  2  0  0  0  0
 29 47  1  0  0  0  0
 30 48  1  0  0  0  0
M  END
$$$$
