
 OpenBabel01122422493D

 43 45  0  0  0  0  0  0  0  0999 V2000
    2.9341    0.9710   -0.6167 O   0  0  0  0  0  0  0  0  0  0  0  0
    2.2857   -0.0197   -0.3097 C   0  0  0  0  0  0  0  0  0  0  0  0
    0.9207   -0.1307   -0.5220 N   0  0  0  0  0  0  0  0  0  0  0  0
    0.1237    0.9579   -1.0648 C   0  0  0  0  0  0  0  0  0  0  0  0
    0.1681    1.0329   -2.5964 C   0  0  0  0  0  0  0  0  0  0  0  0
   -0.6450    2.1721   -3.1567 C   0  0  0  0  0  0  0  0  0  0  0  0
   -0.0464    3.2052   -3.8784 C   0  0  0  0  0  0  0  0  0  0  0  0
    1.2755    3.2122   -4.0930 F   0  0  0  0  0  0  0  0  0  0  0  0
   -0.8283    4.2336   -4.3910 C   0  0  0  0  0  0  0  0  0  0  0  0
   -2.1720    4.3065   -4.2373 N   0  0  0  0  0  0  0  0  0  0  0  0
   -2.7431    3.2965   -3.5405 C   0  0  0  0  0  0  0  0  0  0  0  0
   -2.0298    2.2335   -2.9989 C   0  0  0  0  0  0  0  0  0  0  0  0
   -2.6809    1.2686   -2.3345 F   0  0  0  0  0  0  0  0  0  0  0  0
    2.9423   -1.1895    0.3310 C   0  0  0  0  0  0  0  0  0  0  0  0
    2.5737   -2.4622   -0.1567 C   0  0  0  0  0  0  0  0  0  0  0  0
    3.1929   -3.6211    0.3112 C   0  0  0  0  0  0  0  0  0  0  0  0
    4.2003   -3.5293    1.2596 C   0  0  0  0  0  0  0  0  0  0  0  0
    4.5744   -2.2777    1.7519 C   0  0  0  0  0  0  0  0  0  0  0  0
    3.9529   -1.0911    1.3100 C   0  0  0  0  0  0  0  0  0  0  0  0
    4.5014    0.1562    1.9238 C   0  0  0  0  0  0  0  0  0  0  0  0
    5.6715    0.1474    2.3166 O   0  0  0  0  0  0  0  0  0  0  0  0
    3.7372    1.4047    2.1420 C   0  0  0  0  0  0  0  0  0  0  0  0
    2.3684    1.4120    2.4395 C   0  0  0  0  0  0  0  0  0  0  0  0
    1.6845    2.6289    2.5158 C   0  0  0  0  0  0  0  0  0  0  0  0
    2.3804    3.8239    2.3459 C   0  0  0  0  0  0  0  0  0  0  0  0
    1.7101    4.9838    2.3901 F   0  0  0  0  0  0  0  0  0  0  0  0
    3.7536    3.8189    2.1356 C   0  0  0  0  0  0  0  0  0  0  0  0
    4.4233    4.9709    2.0110 F   0  0  0  0  0  0  0  0  0  0  0  0
    4.4407    2.6150    2.0423 C   0  0  0  0  0  0  0  0  0  0  0  0
    0.4341   -0.9737   -0.2505 H   0  0  0  0  0  0  0  0  0  0  0  0
    0.4691    1.9000   -0.6256 H   0  0  0  0  0  0  0  0  0  0  0  0
   -0.9010    0.7871   -0.7164 H   0  0  0  0  0  0  0  0  0  0  0  0
   -0.2020    0.0948   -3.0297 H   0  0  0  0  0  0  0  0  0  0  0  0
    1.2111    1.1181   -2.9249 H   0  0  0  0  0  0  0  0  0  0  0  0
   -0.3738    5.0417   -4.9558 H   0  0  0  0  0  0  0  0  0  0  0  0
   -3.8206    3.3567   -3.4233 H   0  0  0  0  0  0  0  0  0  0  0  0
    1.8324   -2.5625   -0.9464 H   0  0  0  0  0  0  0  0  0  0  0  0
    2.9107   -4.5905   -0.0915 H   0  0  0  0  0  0  0  0  0  0  0  0
    4.7127   -4.4234    1.6076 H   0  0  0  0  0  0  0  0  0  0  0  0
    5.3843   -2.2312    2.4808 H   0  0  0  0  0  0  0  0  0  0  0  0
    1.8187    0.4865    2.5810 H   0  0  0  0  0  0  0  0  0  0  0  0
    0.6135    2.6557    2.6871 H   0  0  0  0  0  0  0  0  0  0  0  0
    5.5121    2.6259    1.8617 H   0  0  0  0  0  0  0  0  0  0  0  0
  1  2  2  0  0  0  0
  2  3  1  0  0  0  0
  2 14  1  0  0  0  0
  3  4  1  0  0  0  0
  3 30  1  0  0  0  0
  4  5  1  0  0  0  0
  4 31  1  0  0  0  0
  4 32  1  0  0  0  0
  5  6  1  0  0  0  0
  5 33  1  0  0  0  0
  5 34  1  0  0  0  0
  6  7  2  0  0  0  0
  6 12  1  0  0  0  0
  7  8  1  0  0  0  0
  7  9  1  0  0  0  0
  9 10  2  0  0  0  0
  9 35  1  0  0  0  0
 10 11  1  0  0  0  0
 11 12  2  0  0  0  0
 11 36  1  0  0  0  0
 12 13  1  0  0  0  0
 14 15  2  0  0  0  0
 14 19  1  0  0  0  0
 15 16  1  0  0  0  0
 15 37  1  0  0  0  0
 16 17  2  0  0  0  0
 16 38  1  0  0  0  0
 17 18  1  0  0  0  0
 17 39  1  0  0  0  0
 18 19  2  0  0  0  0
 18 40  1  0  0  0  0
 19 20  1  0  0  0  0
 20 21  2  0  0  0  0
 20 22  1  0  0  0  0
 22 23  2  0  0  0  0
 22 29  1  0  0  0  0
 23 24  1  0  0  0  0
 23 41  1  0  0  0  0
 24 25  2  0  0  0  0
 24 42  1  0  0  0  0
 25 26  1  0  0  0  0
 25 27  1  0  0  0  0
 27 28  1  0  0  0  0
 27 29  2  0  0  0  0
 29 43  1  0  0  0  0
M  END
$$$$
