
 OpenBabel01122422493D

 51 54  0  0  1  0  0  0  0  0999 V2000
   -0.3999    0.9432   -1.2017 O   0  0  0  0  0  0  0  0  0  0  0  0
    0.1035    2.0524   -1.0571 C   0  0  0  0  0  0  0  0  0  0  0  0
    1.3793    2.3753   -1.4612 N   0  0  0  0  0  0  0  0  0  0  0  0
    2.2786    1.4046   -2.0703 C   0  0  2  0  0  0  0  0  0  0  0  0
    2.9894    0.6141   -0.9775 C   0  0  0  0  0  0  0  0  0  0  0  0
    3.9494    1.1901   -0.1319 C   0  0  0  0  0  0  0  0  0  0  0  0
    4.5052    0.4498    0.9162 C   0  0  0  0  0  0  0  0  0  0  0  0
    4.1139   -0.8715    1.1289 C   0  0  0  0  0  0  0  0  0  0  0  0
    3.1808   -1.4632    0.2833 C   0  0  0  0  0  0  0  0  0  0  0  0
    2.6225   -0.7257   -0.7600 C   0  0  0  0  0  0  0  0  0  0  0  0
    3.2473    2.0429   -3.1200 C   0  0  1  0  0  0  0  0  0  0  0  0
    4.0210    1.0338   -3.7823 O   0  0  0  0  0  0  0  0  0  0  0  0
    2.5134    2.8471   -4.1889 C   0  0  0  0  0  0  0  0  0  0  0  0
    2.8236    4.2032   -4.3830 C   0  0  0  0  0  0  0  0  0  0  0  0
    2.1539    4.9561   -5.3515 C   0  0  0  0  0  0  0  0  0  0  0  0
    1.1730    4.3599   -6.1429 C   0  0  0  0  0  0  0  0  0  0  0  0
    0.8582    3.0184   -5.9638 C   0  0  0  0  0  0  0  0  0  0  0  0
    1.5200    2.2670   -4.9909 C   0  0  0  0  0  0  0  0  0  0  0  0
   -0.6190    3.1765   -0.4391 C   0  0  0  0  0  0  0  0  0  0  0  0
   -0.0788    4.4065   -0.3345 N   0  0  0  0  0  0  0  0  0  0  0  0
   -1.0252    5.1568    0.2937 N   0  0  0  0  0  0  0  0  0  0  0  0
   -0.7729    6.5190    0.6230 C   0  0  0  0  0  0  0  0  0  0  0  0
    0.4344    7.1150    0.2207 C   0  0  0  0  0  0  0  0  0  0  0  0
    0.7160    8.4415    0.5585 C   0  0  0  0  0  0  0  0  0  0  0  0
   -0.2079    9.1686    1.2999 C   0  0  0  0  0  0  0  0  0  0  0  0
    0.0292   10.4611    1.6618 O   0  0  0  0  0  0  0  0  0  0  0  0
   -1.4091    8.5961    1.7004 C   0  0  0  0  0  0  0  0  0  0  0  0
   -1.6986    7.2714    1.3604 C   0  0  0  0  0  0  0  0  0  0  0  0
   -2.1581    4.4201    0.5556 C   0  0  0  0  0  0  0  0  0  0  0  0
   -1.9241    3.1458    0.1029 C   0  0  0  0  0  0  0  0  0  0  0  0
    1.6992    3.3050   -1.2092 H   0  0  0  0  0  0  0  0  0  0  0  0
    1.6497    0.6888   -2.6158 H   0  0  0  0  0  0  0  0  0  0  0  0
    4.2633    2.2217   -0.2661 H   0  0  0  0  0  0  0  0  0  0  0  0
    5.2366    0.9073    1.5775 H   0  0  0  0  0  0  0  0  0  0  0  0
    4.5305   -1.4387    1.9568 H   0  0  0  0  0  0  0  0  0  0  0  0
    2.8725   -2.4931    0.4419 H   0  0  0  0  0  0  0  0  0  0  0  0
    1.8746   -1.1984   -1.3942 H   0  0  0  0  0  0  0  0  0  0  0  0
    3.9641    2.6957   -2.6098 H   0  0  0  0  0  0  0  0  0  0  0  0
    3.4615    0.6163   -4.4560 H   0  0  0  0  0  0  0  0  0  0  0  0
    3.5884    4.6902   -3.7801 H   0  0  0  0  0  0  0  0  0  0  0  0
    2.3981    6.0051   -5.4919 H   0  0  0  0  0  0  0  0  0  0  0  0
    0.6564    4.9446   -6.8995 H   0  0  0  0  0  0  0  0  0  0  0  0
    0.0939    2.5508   -6.5835 H   0  0  0  0  0  0  0  0  0  0  0  0
    1.2446    1.2228   -4.8727 H   0  0  0  0  0  0  0  0  0  0  0  0
    1.1671    6.5565   -0.3582 H   0  0  0  0  0  0  0  0  0  0  0  0
    1.6554    8.8813    0.2397 H   0  0  0  0  0  0  0  0  0  0  0  0
    0.9028   10.7226    1.3268 H   0  0  0  0  0  0  0  0  0  0  0  0
   -2.1177    9.1778    2.2838 H   0  0  0  0  0  0  0  0  0  0  0  0
   -2.6433    6.8599    1.7013 H   0  0  0  0  0  0  0  0  0  0  0  0
   -3.0274    4.8433    1.0353 H   0  0  0  0  0  0  0  0  0  0  0  0
   -2.5931    2.2971    0.1511 H   0  0  0  0  0  0  0  0  0  0  0  0
  1  2  2  0  0  0  0
  2  3  1  0  0  0  0
  2 19  1  0  0  0  0
  3 31  1  0  0  0  0
  4 11  1  0  0  0  0
  4  5  1  0  0  0  0
  4  3  1  0  0  0  0
  4 32  1  6  0  0  0
  5  6  2  0  0  0  0
  5 10  1  0  0  0  0
  6  7  1  0  0  0  0
  6 33  1  0  0  0  0
  7  8  2  0  0  0  0
  7 34  1  0  0  0  0
  8  9  1  0  0  0  0
  8 35  1  0  0  0  0
  9 10  2  0  0  0  0
  9 36  1  0  0  0  0
 10 37  1  0  0  0  0
 11 12  1  0  0  0  0
 11 13  1  0  0  0  0
 11 38  1  1  0  0  0
 12 39  1  0  0  0  0
 13 14  2  0  0  0  0
 13 18  1  0  0  0  0
 14 15  1  0  0  0  0
 14 40  1  0  0  0  0
 15 16  2  0  0  0  0
 15 41  1  0  0  0  0
 16 17  1  0  0  0  0
 16 42  1  0  0  0  0
 17 18  2  0  0  0  0
 17 43  1  0  0  0  0
 18 44  1  0  0  0  0
 19 20  2  0  0  0  0
 19 30  1  0  0  0  0
 20 21  1  0  0  0  0
 21 22  1  0  0  0  0
 21 29  1  0  0  0  0
 22 23  2  0  0  0  0
 22 28  1  0  0  0  0
 23 24  1  0  0  0  0
 23 45  1  0  0  0  0
 24 25  2  0  0  0  0
 24 46  1  0  0  0  0
 25 26  1  0  0  0  0
 25 27  1  0  0  0  0
 26 47  1  0  0  0  0
 27 28  2  0  0  0  0
 27 48  1  0  0  0  0
 28 49  1  0  0  0  0
 29 30  2  0  0  0  0
 29 50  1  0  0  0  0
 30 51  1  0  0  0  0
M  END
$$$$
