
 OpenBabel01122422453D

 49 52  0  0  0  0  0  0  0  0999 V2000
    2.9716    0.9812    0.6152 O   0  0  0  0  0  0  0  0  0  0  0  0
    2.3869    0.0351    0.0956 C   0  0  0  0  0  0  0  0  0  0  0  0
    1.0268   -0.0535   -0.0243 N   0  0  0  0  0  0  0  0  0  0  0  0
    0.1351    0.9541    0.5097 C   0  0  0  0  0  0  0  0  0  0  0  0
   -0.1242    2.0628   -0.4701 C   0  0  0  0  0  0  0  0  0  0  0  0
    0.7015    3.1885   -0.5193 C   0  0  0  0  0  0  0  0  0  0  0  0
    0.4617    4.1903   -1.4574 C   0  0  0  0  0  0  0  0  0  0  0  0
   -0.6100    4.0395   -2.3325 C   0  0  0  0  0  0  0  0  0  0  0  0
   -0.8337    5.0320   -3.3233 N   0  0  0  0  0  0  0  0  0  0  0  0
   -1.8483    5.0596   -4.2473 C   0  0  0  0  0  0  0  0  0  0  0  0
   -1.7157    6.0963   -5.0444 N   0  0  0  0  0  0  0  0  0  0  0  0
   -0.5902    6.6972   -4.5658 C   0  0  0  0  0  0  0  0  0  0  0  0
   -0.0228    6.1087   -3.5112 N   0  0  0  0  0  0  0  0  0  0  0  0
   -1.4432    2.9628   -2.2996 N   0  0  0  0  0  0  0  0  0  0  0  0
   -1.1727    2.0036   -1.3811 C   0  0  0  0  0  0  0  0  0  0  0  0
    3.0188   -1.0806   -0.3818 N   0  0  0  0  0  0  0  0  0  0  0  0
    4.4677   -1.1608   -0.4193 C   0  0  0  0  0  0  0  0  0  0  0  0
    5.0780   -0.5055   -1.6430 C   0  0  0  0  0  0  0  0  0  0  0  0
    6.0618    0.4686   -1.4864 C   0  0  0  0  0  0  0  0  0  0  0  0
    6.6014    1.0719   -2.6212 C   0  0  0  0  0  0  0  0  0  0  0  0
    7.5686    2.0522   -2.5951 O   0  0  0  0  0  0  0  0  0  0  0  0
    7.5733    2.9847   -1.5788 C   0  0  0  0  0  0  0  0  0  0  0  0
    6.4155    3.4945   -0.9790 C   0  0  0  0  0  0  0  0  0  0  0  0
    6.5176    4.4245    0.0593 C   0  0  0  0  0  0  0  0  0  0  0  0
    7.7694    4.8773    0.4560 C   0  0  0  0  0  0  0  0  0  0  0  0
    7.8602    5.7676    1.4519 F   0  0  0  0  0  0  0  0  0  0  0  0
    8.9170    4.4140   -0.1782 C   0  0  0  0  0  0  0  0  0  0  0  0
   10.1233    4.8656    0.1975 F   0  0  0  0  0  0  0  0  0  0  0  0
    8.8278    3.4692   -1.1974 C   0  0  0  0  0  0  0  0  0  0  0  0
    6.2128    0.6288   -3.8794 C   0  0  0  0  0  0  0  0  0  0  0  0
    5.2548   -0.3672   -3.9497 C   0  0  0  0  0  0  0  0  0  0  0  0
    4.6721   -0.9362   -2.8676 N   0  0  0  0  0  0  0  0  0  0  0  0
    0.6322   -0.9296   -0.3277 H   0  0  0  0  0  0  0  0  0  0  0  0
    0.5494    1.3595    1.4405 H   0  0  0  0  0  0  0  0  0  0  0  0
   -0.8065    0.4574    0.7734 H   0  0  0  0  0  0  0  0  0  0  0  0
    1.5438    3.2817    0.1640 H   0  0  0  0  0  0  0  0  0  0  0  0
    1.1129    5.0587   -1.4966 H   0  0  0  0  0  0  0  0  0  0  0  0
   -2.6269    4.3104   -4.2810 H   0  0  0  0  0  0  0  0  0  0  0  0
   -0.1686    7.5949   -5.0009 H   0  0  0  0  0  0  0  0  0  0  0  0
   -1.8501    1.1533   -1.4055 H   0  0  0  0  0  0  0  0  0  0  0  0
    2.5330   -1.6371   -1.0694 H   0  0  0  0  0  0  0  0  0  0  0  0
    4.7340   -2.2221   -0.4240 H   0  0  0  0  0  0  0  0  0  0  0  0
    4.8688   -0.7165    0.4984 H   0  0  0  0  0  0  0  0  0  0  0  0
    6.3859    0.7550   -0.4912 H   0  0  0  0  0  0  0  0  0  0  0  0
    5.4273    3.1726   -1.2978 H   0  0  0  0  0  0  0  0  0  0  0  0
    5.6262    4.7985    0.5551 H   0  0  0  0  0  0  0  0  0  0  0  0
    9.7331    3.1156   -1.6772 H   0  0  0  0  0  0  0  0  0  0  0  0
    6.6453    1.0488   -4.7805 H   0  0  0  0  0  0  0  0  0  0  0  0
    4.9225   -0.7485   -4.9119 H   0  0  0  0  0  0  0  0  0  0  0  0
  1  2  2  0  0  0  0
  2  3  1  0  0  0  0
  2 16  1  0  0  0  0
  3  4  1  0  0  0  0
  3 33  1  0  0  0  0
  4  5  1  0  0  0  0
  4 34  1  0  0  0  0
  4 35  1  0  0  0  0
  5  6  2  0  0  0  0
  5 15  1  0  0  0  0
  6  7  1  0  0  0  0
  6 36  1  0  0  0  0
  7  8  2  0  0  0  0
  7 37  1  0  0  0  0
  8  9  1  0  0  0  0
  8 14  1  0  0  0  0
  9 10  1  0  0  0  0
  9 13  1  0  0  0  0
 10 11  2  0  0  0  0
 10 38  1  0  0  0  0
 11 12  1  0  0  0  0
 12 13  2  0  0  0  0
 12 39  1  0  0  0  0
 14 15  2  0  0  0  0
 15 40  1  0  0  0  0
 16 17  1  0  0  0  0
 16 41  1  0  0  0  0
 17 18  1  0  0  0  0
 17 42  1  0  0  0  0
 17 43  1  0  0  0  0
 18 19  2  0  0  0  0
 18 32  1  0  0  0  0
 19 20  1  0  0  0  0
 19 44  1  0  0  0  0
 20 21  1  0  0  0  0
 20 30  2  0  0  0  0
 21 22  1  0  0  0  0
 22 23  2  0  0  0  0
 22 29  1  0  0  0  0
 23 24  1  0  0  0  0
 23 45  1  0  0  0  0
 24 25  2  0  0  0  0
 24 46  1  0  0  0  0
 25 26  1  0  0  0  0
 25 27  1  0  0  0  0
 27 28  1  0  0  0  0
 27 29  2  0  0  0  0
 29 47  1  0  0  0  0
 30 31  1  0  0  0  0
 30 48  1  0  0  0  0
 31 32  2  0  0  0  0
 31 49  1  0  0  0  0
M  END
$$$$
