
 OpenBabel01122422493D

 49 52  0  0  0  0  0  0  0  0999 V2000
    4.0374    1.1852   -2.6036 C   0  0  0  0  0  0  0  0  0  0  0  0
    4.1038    0.6969   -1.2237 N   0  0  0  0  0  0  0  0  0  0  0  0
    3.3031    1.2089   -0.1918 C   0  0  0  0  0  0  0  0  0  0  0  0
    2.7895    2.6185   -0.1427 C   0  0  0  0  0  0  0  0  0  0  0  0
    3.8822    3.5598   -0.2000 N   0  0  0  0  0  0  0  0  0  0  0  0
    3.9345    4.5333   -1.1702 C   0  0  0  0  0  0  0  0  0  0  0  0
    3.1041    4.6457   -2.0670 O   0  0  0  0  0  0  0  0  0  0  0  0
    5.0495    5.5122   -1.0896 C   0  0  0  0  0  0  0  0  0  0  0  0
    6.2683    5.2154   -0.4642 C   0  0  0  0  0  0  0  0  0  0  0  0
    7.3105    6.1637   -0.3900 C   0  0  0  0  0  0  0  0  0  0  0  0
    8.5839    5.8273    0.2788 C   0  0  0  0  0  0  0  0  0  0  0  0
    9.8038    6.4162   -0.0695 C   0  0  0  0  0  0  0  0  0  0  0  0
   10.9621    6.0433    0.6177 C   0  0  0  0  0  0  0  0  0  0  0  0
   10.8807    5.0909    1.6159 C   0  0  0  0  0  0  0  0  0  0  0  0
    9.6405    4.5442    1.9014 C   0  0  0  0  0  0  0  0  0  0  0  0
    8.5062    4.8897    1.2539 N   0  0  0  0  0  0  0  0  0  0  0  0
    7.0765    7.4242   -0.9636 C   0  0  0  0  0  0  0  0  0  0  0  0
    5.8743    7.7051   -1.6066 C   0  0  0  0  0  0  0  0  0  0  0  0
    5.6933    8.9129   -2.1559 F   0  0  0  0  0  0  0  0  0  0  0  0
    4.8638    6.7636   -1.6815 C   0  0  0  0  0  0  0  0  0  0  0  0
    2.9587    0.2653    0.7002 C   0  0  0  0  0  0  0  0  0  0  0  0
    3.4490   -1.0179    0.1513 C   0  0  0  0  0  0  0  0  0  0  0  0
    3.2918   -2.0866    0.7180 O   0  0  0  0  0  0  0  0  0  0  0  0
    4.0883   -0.7111   -1.0464 N   0  0  0  0  0  0  0  0  0  0  0  0
    4.8055   -1.6091   -1.8528 C   0  0  0  0  0  0  0  0  0  0  0  0
    4.2382   -2.8427   -2.1967 C   0  0  0  0  0  0  0  0  0  0  0  0
    4.9180   -3.7200   -3.0446 C   0  0  0  0  0  0  0  0  0  0  0  0
    6.1888   -3.3906   -3.5128 C   0  0  0  0  0  0  0  0  0  0  0  0
    6.7742   -2.1798   -3.1465 C   0  0  0  0  0  0  0  0  0  0  0  0
    6.0772   -1.2843   -2.3336 C   0  0  0  0  0  0  0  0  0  0  0  0
    3.6402    2.1985   -2.6713 H   0  0  0  0  0  0  0  0  0  0  0  0
    3.4054    0.5464   -3.2297 H   0  0  0  0  0  0  0  0  0  0  0  0
    5.0432    1.2200   -3.0341 H   0  0  0  0  0  0  0  0  0  0  0  0
    2.2559    2.8104    0.7951 H   0  0  0  0  0  0  0  0  0  0  0  0
    2.0787    2.7821   -0.9596 H   0  0  0  0  0  0  0  0  0  0  0  0
    4.5218    3.5768    0.5826 H   0  0  0  0  0  0  0  0  0  0  0  0
    6.4422    4.2227   -0.0493 H   0  0  0  0  0  0  0  0  0  0  0  0
    9.8726    7.1484   -0.8658 H   0  0  0  0  0  0  0  0  0  0  0  0
   11.9145    6.4930    0.3543 H   0  0  0  0  0  0  0  0  0  0  0  0
   11.7631    4.7770    2.1650 H   0  0  0  0  0  0  0  0  0  0  0  0
    9.5284    3.7929    2.6751 H   0  0  0  0  0  0  0  0  0  0  0  0
    7.8197    8.2168   -0.9167 H   0  0  0  0  0  0  0  0  0  0  0  0
    3.9363    7.0116   -2.1913 H   0  0  0  0  0  0  0  0  0  0  0  0
    2.3535    0.3376    1.5841 H   0  0  0  0  0  0  0  0  0  0  0  0
    3.2432   -3.1091   -1.8461 H   0  0  0  0  0  0  0  0  0  0  0  0
    4.4548   -4.6587   -3.3384 H   0  0  0  0  0  0  0  0  0  0  0  0
    6.7259   -4.0810   -4.1581 H   0  0  0  0  0  0  0  0  0  0  0  0
    7.7759   -1.9334   -3.4873 H   0  0  0  0  0  0  0  0  0  0  0  0
    6.5515   -0.3539   -2.0332 H   0  0  0  0  0  0  0  0  0  0  0  0
  1  2  1  0  0  0  0
  1 31  1  0  0  0  0
  1 32  1  0  0  0  0
  1 33  1  0  0  0  0
  2  3  1  0  0  0  0
  2 24  1  0  0  0  0
  3  4  1  0  0  0  0
  3 21  2  0  0  0  0
  4  5  1  0  0  0  0
  4 34  1  0  0  0  0
  4 35  1  0  0  0  0
  5  6  1  0  0  0  0
  5 36  1  0  0  0  0
  6  7  2  0  0  0  0
  6  8  1  0  0  0  0
  8  9  2  0  0  0  0
  8 20  1  0  0  0  0
  9 10  1  0  0  0  0
  9 37  1  0  0  0  0
 10 11  1  0  0  0  0
 10 17  2  0  0  0  0
 11 12  2  0  0  0  0
 11 16  1  0  0  0  0
 12 13  1  0  0  0  0
 12 38  1  0  0  0  0
 13 14  2  0  0  0  0
 13 39  1  0  0  0  0
 14 15  1  0  0  0  0
 14 40  1  0  0  0  0
 15 16  2  0  0  0  0
 15 41  1  0  0  0  0
 17 18  1  0  0  0  0
 17 42  1  0  0  0  0
 18 19  1  0  0  0  0
 18 20  2  0  0  0  0
 20 43  1  0  0  0  0
 21 22  1  0  0  0  0
 21 44  1  0  0  0  0
 22 23  2  0  0  0  0
 22 24  1  0  0  0  0
 24 25  1  0  0  0  0
 25 26  2  0  0  0  0
 25 30  1  0  0  0  0
 26 27  1  0  0  0  0
 26 45  1  0  0  0  0
 27 28  2  0  0  0  0
 27 46  1  0  0  0  0
 28 29  1  0  0  0  0
 28 47  1  0  0  0  0
 29 30  2  0  0  0  0
 29 48  1  0  0  0  0
 30 49  1  0  0  0  0
M  END
$$$$
