
 OpenBabel01122422493D

 57 60  0  0  1  0  0  0  0  0999 V2000
    2.1994    1.2423    0.2418 C   0  0  0  0  0  0  0  0  0  0  0  0
    2.1047   -0.1430   -0.0655 O   0  0  0  0  0  0  0  0  0  0  0  0
    2.9518   -0.6287   -1.0236 C   0  0  0  0  0  0  0  0  0  0  0  0
    3.8531    0.1141   -1.7855 C   0  0  0  0  0  0  0  0  0  0  0  0
    4.6367   -0.5106   -2.7715 C   0  0  0  0  0  0  0  0  0  0  0  0
    4.5468   -1.8925   -3.0068 C   0  0  0  0  0  0  0  0  0  0  0  0
    5.3308   -2.5373   -4.1713 C   0  0  3  0  0  0  0  0  0  0  0  0
    5.5264   -3.9721   -3.9288 N   0  0  0  0  0  0  0  0  0  0  0  0
    6.5965   -4.4847   -3.2186 C   0  0  0  0  0  0  0  0  0  0  0  0
    7.5084   -3.7989   -2.7694 O   0  0  0  0  0  0  0  0  0  0  0  0
    6.6190   -5.9668   -3.0649 C   0  0  0  0  0  0  0  0  0  0  0  0
    5.4338   -6.6969   -2.9647 C   0  0  0  0  0  0  0  0  0  0  0  0
    5.5208   -8.0658   -2.8148 C   0  0  0  0  0  0  0  0  0  0  0  0
    6.6851   -8.7440   -2.7654 N   0  0  0  0  0  0  0  0  0  0  0  0
    7.8396   -8.0271   -2.8512 C   0  0  0  0  0  0  0  0  0  0  0  0
    9.0821   -8.8123   -2.7925 C   0  0  0  0  0  0  0  0  0  0  0  0
   10.3066   -8.2648   -2.9143 N   0  0  0  0  0  0  0  0  0  0  0  0
   11.1542   -9.3013   -2.8089 N   0  0  0  0  0  0  0  0  0  0  0  0
   10.5368  -10.5015   -2.6348 C   0  0  0  0  0  0  0  0  0  0  0  0
    9.1919  -10.2245   -2.6201 C   0  0  0  0  0  0  0  0  0  0  0  0
    7.8466   -6.6413   -2.9942 C   0  0  0  0  0  0  0  0  0  0  0  0
    4.6537   -2.3652   -5.5466 C   0  0  0  0  0  0  0  0  0  0  0  0
    3.2367   -2.2823   -5.5975 C   0  0  0  0  0  0  0  0  0  0  0  0
    2.5203   -2.1343   -6.7923 C   0  0  0  0  0  0  0  0  0  0  0  0
    3.1961   -2.0936   -7.9966 C   0  0  0  0  0  0  0  0  0  0  0  0
    2.6312   -1.9712   -9.2372 O   0  0  0  0  0  0  0  0  0  0  0  0
    1.2127   -1.8782   -9.2970 C   0  0  0  0  0  0  0  0  0  0  0  0
    4.5865   -2.1709   -7.9784 C   0  0  0  0  0  0  0  0  0  0  0  0
    5.3288   -2.3078   -6.7827 C   0  0  0  0  0  0  0  0  0  0  0  0
    6.6691   -2.2348   -7.0354 O   0  0  0  0  0  0  0  0  0  0  0  0
    7.5985   -3.0374   -6.3319 C   0  0  0  0  0  0  0  0  0  0  0  0
    3.6515   -2.6295   -2.2091 C   0  0  0  0  0  0  0  0  0  0  0  0
    2.8605   -2.0024   -1.2396 C   0  0  0  0  0  0  0  0  0  0  0  0
    1.4496    1.4683    1.0071 H   0  0  0  0  0  0  0  0  0  0  0  0
    1.9737    1.8620   -0.6321 H   0  0  0  0  0  0  0  0  0  0  0  0
    3.1829    1.4843    0.6567 H   0  0  0  0  0  0  0  0  0  0  0  0
    3.9595    1.1854   -1.6517 H   0  0  0  0  0  0  0  0  0  0  0  0
    5.3087    0.1028   -3.3698 H   0  0  0  0  0  0  0  0  0  0  0  0
    6.3121   -2.0494   -4.1889 H   0  0  0  0  0  0  0  0  0  0  0  0
    4.9368   -4.5966   -4.4563 H   0  0  0  0  0  0  0  0  0  0  0  0
    4.4618   -6.2184   -2.9702 H   0  0  0  0  0  0  0  0  0  0  0  0
    4.6281   -8.6797   -2.7220 H   0  0  0  0  0  0  0  0  0  0  0  0
   12.1500   -9.1157   -2.8671 H   0  0  0  0  0  0  0  0  0  0  0  0
   11.0931  -11.4225   -2.5384 H   0  0  0  0  0  0  0  0  0  0  0  0
    8.3827  -10.9324   -2.5019 H   0  0  0  0  0  0  0  0  0  0  0  0
    8.7840   -6.0962   -3.0538 H   0  0  0  0  0  0  0  0  0  0  0  0
    2.6449   -2.3018   -4.6844 H   0  0  0  0  0  0  0  0  0  0  0  0
    1.4400   -2.0495   -6.7328 H   0  0  0  0  0  0  0  0  0  0  0  0
    0.9235   -1.8600  -10.3530 H   0  0  0  0  0  0  0  0  0  0  0  0
    0.8614   -0.9480   -8.8384 H   0  0  0  0  0  0  0  0  0  0  0  0
    0.7330   -2.7505   -8.8404 H   0  0  0  0  0  0  0  0  0  0  0  0
    5.1226   -2.1160   -8.9265 H   0  0  0  0  0  0  0  0  0  0  0  0
    8.2270   -3.5585   -7.0622 H   0  0  0  0  0  0  0  0  0  0  0  0
    7.1492   -3.8072   -5.7150 H   0  0  0  0  0  0  0  0  0  0  0  0
    8.2457   -2.3828   -5.7417 H   0  0  0  0  0  0  0  0  0  0  0  0
    3.5308   -3.6992   -2.3531 H   0  0  0  0  0  0  0  0  0  0  0  0
    2.1565   -2.5917   -0.6560 H   0  0  0  0  0  0  0  0  0  0  0  0
  1  2  1  0  0  0  0
  1 34  1  0  0  0  0
  1 35  1  0  0  0  0
  1 36  1  0  0  0  0
  2  3  1  0  0  0  0
  3  4  2  0  0  0  0
  3 33  1  0  0  0  0
  4  5  1  0  0  0  0
  4 37  1  0  0  0  0
  5  6  2  0  0  0  0
  5 38  1  0  0  0  0
  6  7  1  0  0  0  0
  6 32  1  0  0  0  0
  7  8  1  0  0  0  0
  7 22  1  0  0  0  0
  7 39  1  0  0  0  0
  8  9  1  0  0  0  0
  8 40  1  0  0  0  0
  9 10  2  0  0  0  0
  9 11  1  0  0  0  0
 11 12  2  0  0  0  0
 11 21  1  0  0  0  0
 12 13  1  0  0  0  0
 12 41  1  0  0  0  0
 13 14  2  0  0  0  0
 13 42  1  0  0  0  0
 14 15  1  0  0  0  0
 15 16  1  0  0  0  0
 15 21  2  0  0  0  0
 16 17  2  0  0  0  0
 16 20  1  0  0  0  0
 17 18  1  0  0  0  0
 18 19  1  0  0  0  0
 18 43  1  0  0  0  0
 19 20  2  0  0  0  0
 19 44  1  0  0  0  0
 20 45  1  0  0  0  0
 21 46  1  0  0  0  0
 22 23  2  0  0  0  0
 22 29  1  0  0  0  0
 23 24  1  0  0  0  0
 23 47  1  0  0  0  0
 24 25  2  0  0  0  0
 24 48  1  0  0  0  0
 25 26  1  0  0  0  0
 25 28  1  0  0  0  0
 26 27  1  0  0  0  0
 27 49  1  0  0  0  0
 27 50  1  0  0  0  0
 27 51  1  0  0  0  0
 28 29  2  0  0  0  0
 28 52  1  0  0  0  0
 29 30  1  0  0  0  0
 30 31  1  0  0  0  0
 31 53  1  0  0  0  0
 31 54  1  0  0  0  0
 31 55  1  0  0  0  0
 32 33  2  0  0  0  0
 32 56  1  0  0  0  0
 33 57  1  0  0  0  0
M  END
$$$$
