
 OpenBabel01122422493D

 43 46  0  0  0  0  0  0  0  0999 V2000
    0.8583    0.6201   -0.0084 O   0  0  0  0  0  0  0  0  0  0  0  0
    1.9101    0.1272    0.3920 C   0  0  0  0  0  0  0  0  0  0  0  0
    2.2357   -1.2273    0.2777 N   0  0  0  0  0  0  0  0  0  0  0  0
    1.6542   -2.1364   -0.6004 C   0  0  0  0  0  0  0  0  0  0  0  0
    0.8151   -1.8574   -1.5983 C   0  0  0  0  0  0  0  0  0  0  0  0
    0.3272   -2.8846   -2.5533 C   0  0  0  0  0  0  0  0  0  0  0  0
   -0.4436   -2.4942   -3.4293 O   0  0  0  0  0  0  0  0  0  0  0  0
    0.7857   -4.1928   -2.3473 N   0  0  0  0  0  0  0  0  0  0  0  0
    0.3742   -5.3056   -3.1684 C   0  0  0  0  0  0  0  0  0  0  0  0
   -0.1514   -5.1294   -4.4599 C   0  0  0  0  0  0  0  0  0  0  0  0
   -0.6462   -6.2077   -5.2056 C   0  0  0  0  0  0  0  0  0  0  0  0
   -0.6169   -7.4927   -4.6779 C   0  0  0  0  0  0  0  0  0  0  0  0
   -0.0547   -7.7041   -3.4232 C   0  0  0  0  0  0  0  0  0  0  0  0
    0.4531   -6.6240   -2.6839 C   0  0  0  0  0  0  0  0  0  0  0  0
    1.6197   -4.5279   -1.2903 N   0  0  0  0  0  0  0  0  0  0  0  0
    2.0177   -3.5705   -0.5129 C   0  0  0  0  0  0  0  0  0  0  0  0
    2.9974    1.0839    0.8738 C   0  0  0  0  0  0  0  0  0  0  0  0
    3.2198    1.9578   -0.1881 C   0  0  0  0  0  0  0  0  0  0  0  0
    4.2040    1.5695   -1.0904 C   0  0  0  0  0  0  0  0  0  0  0  0
    4.1134    1.9636   -2.4273 C   0  0  0  0  0  0  0  0  0  0  0  0
    4.8893    1.3203   -3.3823 C   0  0  0  0  0  0  0  0  0  0  0  0
    5.8155    0.3610   -2.9873 C   0  0  0  0  0  0  0  0  0  0  0  0
    5.9795    0.0570   -1.6337 C   0  0  0  0  0  0  0  0  0  0  0  0
    5.1584    0.6191   -0.6716 C   0  0  0  0  0  0  0  0  0  0  0  0
    5.2093    0.2067    0.6084 N   0  0  0  0  0  0  0  0  0  0  0  0
    4.1429    0.5214    1.3983 C   0  0  0  0  0  0  0  0  0  0  0  0
    4.3337    0.5521    2.9033 C   0  0  0  0  0  0  0  0  0  0  0  0
    3.1728    0.7560    3.5893 F   0  0  0  0  0  0  0  0  0  0  0  0
    4.8575   -0.6001    3.4044 F   0  0  0  0  0  0  0  0  0  0  0  0
    3.0513   -1.5685    0.7773 H   0  0  0  0  0  0  0  0  0  0  0  0
    0.4601   -0.8581   -1.8144 H   0  0  0  0  0  0  0  0  0  0  0  0
   -0.1791   -4.1514   -4.9325 H   0  0  0  0  0  0  0  0  0  0  0  0
   -1.0653   -6.0327   -6.1939 H   0  0  0  0  0  0  0  0  0  0  0  0
   -1.0326   -8.3235   -5.2407 H   0  0  0  0  0  0  0  0  0  0  0  0
   -0.0231   -8.7072   -3.0050 H   0  0  0  0  0  0  0  0  0  0  0  0
    0.8671   -6.8245   -1.6982 H   0  0  0  0  0  0  0  0  0  0  0  0
    2.6952   -3.8378    0.3161 H   0  0  0  0  0  0  0  0  0  0  0  0
    2.4049    2.6011   -0.5232 H   0  0  0  0  0  0  0  0  0  0  0  0
    3.3582    2.6785   -2.7467 H   0  0  0  0  0  0  0  0  0  0  0  0
    4.7354    1.5341   -4.4363 H   0  0  0  0  0  0  0  0  0  0  0  0
    6.4014   -0.1688   -3.7326 H   0  0  0  0  0  0  0  0  0  0  0  0
    6.7082   -0.6908   -1.3368 H   0  0  0  0  0  0  0  0  0  0  0  0
    5.0127    1.3750    3.1586 H   0  0  0  0  0  0  0  0  0  0  0  0
  1  2  2  0  0  0  0
  2  3  1  0  0  0  0
  2 17  1  0  0  0  0
  3  4  1  0  0  0  0
  3 30  1  0  0  0  0
  4  5  2  0  0  0  0
  4 16  1  0  0  0  0
  5  6  1  0  0  0  0
  5 31  1  0  0  0  0
  6  7  2  0  0  0  0
  6  8  1  0  0  0  0
  8  9  1  0  0  0  0
  8 15  1  0  0  0  0
  9 10  2  0  0  0  0
  9 14  1  0  0  0  0
 10 11  1  0  0  0  0
 10 32  1  0  0  0  0
 11 12  2  0  0  0  0
 11 33  1  0  0  0  0
 12 13  1  0  0  0  0
 12 34  1  0  0  0  0
 13 14  2  0  0  0  0
 13 35  1  0  0  0  0
 14 36  1  0  0  0  0
 15 16  2  0  0  0  0
 16 37  1  0  0  0  0
 17 18  2  0  0  0  0
 17 26  1  0  0  0  0
 18 19  1  0  0  0  0
 18 38  1  0  0  0  0
 19 20  2  0  0  0  0
 19 24  1  0  0  0  0
 20 21  1  0  0  0  0
 20 39  1  0  0  0  0
 21 22  2  0  0  0  0
 21 40  1  0  0  0  0
 22 23  1  0  0  0  0
 22 41  1  0  0  0  0
 23 24  2  0  0  0  0
 23 42  1  0  0  0  0
 24 25  1  0  0  0  0
 25 26  2  0  0  0  0
 26 27  1  0  0  0  0
 27 28  1  0  0  0  0
 27 29  1  0  0  0  0
 27 43  1  0  0  0  0
M  END
$$$$
