
 OpenBabel01122422493D

 42 45  0  0  0  0  0  0  0  0999 V2000
    1.1805    0.1989   -0.6473 O   0  0  0  0  0  0  0  0  0  0  0  0
    2.3133    0.0709   -0.1918 C   0  0  0  0  0  0  0  0  0  0  0  0
    2.9648   -1.1346   -0.0241 N   0  0  0  0  0  0  0  0  0  0  0  0
    2.3837   -2.3441   -0.3435 C   0  0  0  0  0  0  0  0  0  0  0  0
    2.4522   -3.4709    0.4440 C   0  0  0  0  0  0  0  0  0  0  0  0
    3.1272   -3.6640    1.7379 C   0  0  0  0  0  0  0  0  0  0  0  0
    3.9564   -4.7361    1.7139 F   0  0  0  0  0  0  0  0  0  0  0  0
    3.9148   -2.5897    2.0383 F   0  0  0  0  0  0  0  0  0  0  0  0
    1.7149   -4.4441   -0.2099 N   0  0  0  0  0  0  0  0  0  0  0  0
    1.2750   -5.7220    0.2364 C   0  0  0  0  0  0  0  0  0  0  0  0
    0.9616   -5.9660    1.5738 C   0  0  0  0  0  0  0  0  0  0  0  0
    0.5046   -7.2275    1.9223 C   0  0  0  0  0  0  0  0  0  0  0  0
    0.3496   -8.2379    1.0450 N   0  0  0  0  0  0  0  0  0  0  0  0
    0.6324   -7.9706   -0.2481 C   0  0  0  0  0  0  0  0  0  0  0  0
    1.0753   -6.7396   -0.7017 C   0  0  0  0  0  0  0  0  0  0  0  0
    1.3427   -4.0275   -1.4485 N   0  0  0  0  0  0  0  0  0  0  0  0
    1.6459   -2.7294   -1.4716 C   0  0  0  0  0  0  0  0  0  0  0  0
    3.0768    1.2084    0.3482 C   0  0  0  0  0  0  0  0  0  0  0  0
    4.3637    1.1004    0.7346 N   0  0  0  0  0  0  0  0  0  0  0  0
    4.7188    2.3492    1.1632 N   0  0  0  0  0  0  0  0  0  0  0  0
    6.0393    2.6056    1.6325 C   0  0  0  0  0  0  0  0  0  0  0  0
    7.0111    1.5917    1.5609 C   0  0  0  0  0  0  0  0  0  0  0  0
    8.3089    1.8226    2.0299 C   0  0  0  0  0  0  0  0  0  0  0  0
    8.6324    3.0577    2.5785 C   0  0  0  0  0  0  0  0  0  0  0  0
    9.8750    3.2742    3.0347 F   0  0  0  0  0  0  0  0  0  0  0  0
    7.6895    4.0775    2.6545 C   0  0  0  0  0  0  0  0  0  0  0  0
    6.4003    3.8433    2.1856 C   0  0  0  0  0  0  0  0  0  0  0  0
    5.5328    4.8556    2.2953 F   0  0  0  0  0  0  0  0  0  0  0  0
    3.6524    3.2158    1.0744 C   0  0  0  0  0  0  0  0  0  0  0  0
    2.5898    2.5143    0.5621 C   0  0  0  0  0  0  0  0  0  0  0  0
    3.7370   -1.1149    0.6404 H   0  0  0  0  0  0  0  0  0  0  0  0
    2.4283   -3.7692    2.5684 H   0  0  0  0  0  0  0  0  0  0  0  0
    0.9732   -5.2050    2.3404 H   0  0  0  0  0  0  0  0  0  0  0  0
    0.2239   -7.4565    2.9473 H   0  0  0  0  0  0  0  0  0  0  0  0
    0.4856   -8.8009   -0.9336 H   0  0  0  0  0  0  0  0  0  0  0  0
    1.2839   -6.5962   -1.7579 H   0  0  0  0  0  0  0  0  0  0  0  0
    1.3809   -2.1389   -2.3436 H   0  0  0  0  0  0  0  0  0  0  0  0
    6.7804    0.6180    1.1313 H   0  0  0  0  0  0  0  0  0  0  0  0
    9.0659    1.0462    1.9766 H   0  0  0  0  0  0  0  0  0  0  0  0
    7.9590    5.0368    3.0863 H   0  0  0  0  0  0  0  0  0  0  0  0
    3.7138    4.2506    1.3673 H   0  0  0  0  0  0  0  0  0  0  0  0
    1.5898    2.8810    0.3771 H   0  0  0  0  0  0  0  0  0  0  0  0
  1  2  2  0  0  0  0
  2  3  1  0  0  0  0
  2 18  1  0  0  0  0
  3  4  1  0  0  0  0
  3 31  1  0  0  0  0
  4  5  2  0  0  0  0
  4 17  1  0  0  0  0
  5  6  1  0  0  0  0
  5  9  1  0  0  0  0
  6  7  1  0  0  0  0
  6  8  1  0  0  0  0
  6 32  1  0  0  0  0
  9 10  1  0  0  0  0
  9 16  1  0  0  0  0
 10 11  2  0  0  0  0
 10 15  1  0  0  0  0
 11 12  1  0  0  0  0
 11 33  1  0  0  0  0
 12 13  2  0  0  0  0
 12 34  1  0  0  0  0
 13 14  1  0  0  0  0
 14 15  2  0  0  0  0
 14 35  1  0  0  0  0
 15 36  1  0  0  0  0
 16 17  2  0  0  0  0
 17 37  1  0  0  0  0
 18 19  2  0  0  0  0
 18 30  1  0  0  0  0
 19 20  1  0  0  0  0
 20 21  1  0  0  0  0
 20 29  1  0  0  0  0
 21 22  2  0  0  0  0
 21 27  1  0  0  0  0
 22 23  1  0  0  0  0
 22 38  1  0  0  0  0
 23 24  2  0  0  0  0
 23 39  1  0  0  0  0
 24 25  1  0  0  0  0
 24 26  1  0  0  0  0
 26 27  2  0  0  0  0
 26 40  1  0  0  0  0
 27 28  1  0  0  0  0
 29 30  2  0  0  0  0
 29 41  1  0  0  0  0
 30 42  1  0  0  0  0
M  END
$$$$
