
 OpenBabel01122422493D

 40 43  0  0  0  0  0  0  0  0999 V2000
    1.2292    0.0318   -0.5495 O   0  0  0  0  0  0  0  0  0  0  0  0
    2.3495    0.0567   -0.0548 C   0  0  0  0  0  0  0  0  0  0  0  0
    2.9028   -0.8656    0.8166 N   0  0  0  0  0  0  0  0  0  0  0  0
    2.3041   -2.0803    1.2117 C   0  0  0  0  0  0  0  0  0  0  0  0
    1.2190   -2.6366    0.5299 C   0  0  0  0  0  0  0  0  0  0  0  0
    0.6542   -3.8736    0.8868 C   0  0  0  0  0  0  0  0  0  0  0  0
   -0.4106   -4.4736    0.0473 C   0  0  0  0  0  0  0  0  0  0  0  0
   -0.4088   -4.2758   -1.3529 C   0  0  0  0  0  0  0  0  0  0  0  0
   -1.3884   -4.8361   -2.1749 C   0  0  0  0  0  0  0  0  0  0  0  0
   -2.3813   -5.6194   -1.6101 C   0  0  0  0  0  0  0  0  0  0  0  0
   -3.3127   -6.1708   -2.3978 F   0  0  0  0  0  0  0  0  0  0  0  0
   -2.4203   -5.8416   -0.2427 C   0  0  0  0  0  0  0  0  0  0  0  0
   -1.4466   -5.2655    0.5719 C   0  0  0  0  0  0  0  0  0  0  0  0
   -1.5357   -5.4874    1.8922 F   0  0  0  0  0  0  0  0  0  0  0  0
    1.1793   -4.5101    2.0208 C   0  0  0  0  0  0  0  0  0  0  0  0
    2.2576   -3.9619    2.7239 C   0  0  0  0  0  0  0  0  0  0  0  0
    2.8376   -2.7647    2.3028 C   0  0  0  0  0  0  0  0  0  0  0  0
    3.1950    1.2195   -0.3753 C   0  0  0  0  0  0  0  0  0  0  0  0
    2.5803    2.4495   -0.5887 C   0  0  0  0  0  0  0  0  0  0  0  0
    3.2519    3.5871   -0.8980 N   0  0  0  0  0  0  0  0  0  0  0  0
    4.5907    3.4891   -1.0290 C   0  0  0  0  0  0  0  0  0  0  0  0
    5.2382    4.6841   -1.3536 N   0  0  0  0  0  0  0  0  0  0  0  0
    6.5123    4.6425   -1.5152 C   0  0  0  0  0  0  0  0  0  0  0  0
    7.2635    3.5092   -1.3830 N   0  0  0  0  0  0  0  0  0  0  0  0
    6.7228    2.2990   -1.0498 C   0  0  0  0  0  0  0  0  0  0  0  0
    7.3940    1.2830   -0.9116 O   0  0  0  0  0  0  0  0  0  0  0  0
    5.2693    2.2879   -0.8576 C   0  0  0  0  0  0  0  0  0  0  0  0
    4.5753    1.1276   -0.5254 C   0  0  0  0  0  0  0  0  0  0  0  0
    3.7602   -0.6193    1.2950 H   0  0  0  0  0  0  0  0  0  0  0  0
    0.8053   -2.1160   -0.3266 H   0  0  0  0  0  0  0  0  0  0  0  0
    0.3707   -3.6832   -1.8298 H   0  0  0  0  0  0  0  0  0  0  0  0
   -1.3720   -4.6652   -3.2467 H   0  0  0  0  0  0  0  0  0  0  0  0
   -3.2007   -6.4543    0.1903 H   0  0  0  0  0  0  0  0  0  0  0  0
    0.7702   -5.4584    2.3638 H   0  0  0  0  0  0  0  0  0  0  0  0
    2.6497   -4.4801    3.5957 H   0  0  0  0  0  0  0  0  0  0  0  0
    3.6868   -2.3713    2.8539 H   0  0  0  0  0  0  0  0  0  0  0  0
    1.5009    2.5630   -0.5127 H   0  0  0  0  0  0  0  0  0  0  0  0
    7.0937    5.5390   -1.7757 H   0  0  0  0  0  0  0  0  0  0  0  0
    8.2660    3.5357   -1.5218 H   0  0  0  0  0  0  0  0  0  0  0  0
    5.1026    0.1831   -0.4274 H   0  0  0  0  0  0  0  0  0  0  0  0
  1  2  2  0  0  0  0
  2  3  1  0  0  0  0
  2 18  1  0  0  0  0
  3  4  1  0  0  0  0
  3 29  1  0  0  0  0
  4  5  2  0  0  0  0
  4 17  1  0  0  0  0
  5  6  1  0  0  0  0
  5 30  1  0  0  0  0
  6  7  1  0  0  0  0
  6 15  2  0  0  0  0
  7  8  2  0  0  0  0
  7 13  1  0  0  0  0
  8  9  1  0  0  0  0
  8 31  1  0  0  0  0
  9 10  2  0  0  0  0
  9 32  1  0  0  0  0
 10 11  1  0  0  0  0
 10 12  1  0  0  0  0
 12 13  2  0  0  0  0
 12 33  1  0  0  0  0
 13 14  1  0  0  0  0
 15 16  1  0  0  0  0
 15 34  1  0  0  0  0
 16 17  2  0  0  0  0
 16 35  1  0  0  0  0
 17 36  1  0  0  0  0
 18 19  2  0  0  0  0
 18 28  1  0  0  0  0
 19 20  1  0  0  0  0
 19 37  1  0  0  0  0
 20 21  2  0  0  0  0
 21 22  1  0  0  0  0
 21 27  1  0  0  0  0
 22 23  2  0  0  0  0
 23 24  1  0  0  0  0
 23 38  1  0  0  0  0
 24 25  1  0  0  0  0
 24 39  1  0  0  0  0
 25 26  2  0  0  0  0
 25 27  1  0  0  0  0
 27 28  2  0  0  0  0
 28 40  1  0  0  0  0
M  END
$$$$
