
 OpenBabel01122422463D

 47 50  0  0  1  0  0  0  0  0999 V2000
    5.8294    3.6147   -0.6022 O   0  0  0  0  0  0  0  0  0  0  0  0
    6.7584    2.8451   -0.4481 C   0  0  0  0  0  0  0  0  0  0  0  0
    7.5948    2.8883    0.6113 O   0  0  0  0  0  0  0  0  0  0  0  0
    7.1008    1.8018   -1.4273 C   0  0  0  0  0  0  0  0  0  0  0  0
    6.8799    2.0418   -2.7700 C   0  0  0  0  0  0  0  0  0  0  0  0
    7.1853    1.1591   -3.7544 N   0  0  0  0  0  0  0  0  0  0  0  0
    7.6767   -0.0372   -3.4243 C   0  0  0  0  0  0  0  0  0  0  0  0
    7.9470   -0.8973   -4.4039 N   0  0  0  0  0  0  0  0  0  0  0  0
    8.2981   -2.1553   -4.0809 C   0  0  0  0  0  0  0  0  0  0  0  0
    8.4434   -3.0171   -5.1690 N   0  0  0  0  0  0  0  0  0  0  0  0
    8.0703   -4.3489   -5.1509 C   0  0  0  0  0  0  0  0  0  0  0  0
    7.5259   -4.8737   -4.1845 O   0  0  0  0  0  0  0  0  0  0  0  0
    8.3958   -5.1592   -6.3765 C   0  0  0  0  0  0  0  0  0  0  0  0
    8.6008   -4.4995   -7.6062 C   0  0  0  0  0  0  0  0  0  0  0  0
    9.1091   -5.1768   -8.7146 C   0  0  0  0  0  0  0  0  0  0  0  0
    9.4051   -6.5279   -8.6206 C   0  0  0  0  0  0  0  0  0  0  0  0
    9.1234   -7.2176   -7.4425 C   0  0  0  0  0  0  0  0  0  0  0  0
    8.5863   -6.5635   -6.3094 C   0  0  0  0  0  0  0  0  0  0  0  0
    8.2357   -7.4453   -5.1117 C   0  0  3  0  0  0  0  0  0  0  0  0
    8.9147   -6.9511   -3.9570 O   0  0  0  0  0  0  0  0  0  0  0  0
    6.7448   -7.6988   -4.8626 C   0  0  0  0  0  0  0  0  0  0  0  0
    5.8045   -7.7258   -5.9067 C   0  0  0  0  0  0  0  0  0  0  0  0
    4.4558   -8.0006   -5.6631 C   0  0  0  0  0  0  0  0  0  0  0  0
    4.0209   -8.2709   -4.3658 C   0  0  0  0  0  0  0  0  0  0  0  0
    4.9373   -8.2791   -3.3196 C   0  0  0  0  0  0  0  0  0  0  0  0
    6.2852   -8.0066   -3.5682 C   0  0  0  0  0  0  0  0  0  0  0  0
    8.5356   -2.5723   -2.7820 C   0  0  0  0  0  0  0  0  0  0  0  0
    8.3471   -1.6596   -1.7582 C   0  0  0  0  0  0  0  0  0  0  0  0
    7.8826   -0.3811   -2.0705 C   0  0  0  0  0  0  0  0  0  0  0  0
    7.6008    0.5560   -1.0659 C   0  0  0  0  0  0  0  0  0  0  0  0
    8.4074    2.3534    0.5360 H   0  0  0  0  0  0  0  0  0  0  0  0
    6.4427    2.9774   -3.1149 H   0  0  0  0  0  0  0  0  0  0  0  0
    8.5593   -2.5220   -6.0378 H   0  0  0  0  0  0  0  0  0  0  0  0
    8.3693   -3.4472   -7.7394 H   0  0  0  0  0  0  0  0  0  0  0  0
    9.2891   -4.6418   -9.6441 H   0  0  0  0  0  0  0  0  0  0  0  0
    9.8392   -7.0520   -9.4685 H   0  0  0  0  0  0  0  0  0  0  0  0
    9.3354   -8.2856   -7.4073 H   0  0  0  0  0  0  0  0  0  0  0  0
    8.6672   -8.4400   -5.2774 H   0  0  0  0  0  0  0  0  0  0  0  0
    8.3216   -6.2452   -3.6182 H   0  0  0  0  0  0  0  0  0  0  0  0
    6.1087   -7.5361   -6.9354 H   0  0  0  0  0  0  0  0  0  0  0  0
    3.7427   -8.0083   -6.4818 H   0  0  0  0  0  0  0  0  0  0  0  0
    2.9712   -8.4791   -4.1740 H   0  0  0  0  0  0  0  0  0  0  0  0
    4.6060   -8.4989   -2.3078 H   0  0  0  0  0  0  0  0  0  0  0  0
    6.9838   -8.0344   -2.7333 H   0  0  0  0  0  0  0  0  0  0  0  0
    8.8842   -3.5763   -2.5627 H   0  0  0  0  0  0  0  0  0  0  0  0
    8.5387   -1.9622   -0.7323 H   0  0  0  0  0  0  0  0  0  0  0  0
    7.7288    0.2877   -0.0207 H   0  0  0  0  0  0  0  0  0  0  0  0
  1  2  2  0  0  0  0
  2  3  1  0  0  0  0
  2  4  1  0  0  0  0
  3 31  1  0  0  0  0
  4  5  2  0  0  0  0
  4 30  1  0  0  0  0
  5  6  1  0  0  0  0
  5 32  1  0  0  0  0
  6  7  2  0  0  0  0
  7  8  1  0  0  0  0
  7 29  1  0  0  0  0
  8  9  2  0  0  0  0
  9 10  1  0  0  0  0
  9 27  1  0  0  0  0
 10 11  1  0  0  0  0
 10 33  1  0  0  0  0
 11 12  2  0  0  0  0
 11 13  1  0  0  0  0
 13 14  2  0  0  0  0
 13 18  1  0  0  0  0
 14 15  1  0  0  0  0
 14 34  1  0  0  0  0
 15 16  2  0  0  0  0
 15 35  1  0  0  0  0
 16 17  1  0  0  0  0
 16 36  1  0  0  0  0
 17 18  2  0  0  0  0
 17 37  1  0  0  0  0
 18 19  1  0  0  0  0
 19 20  1  0  0  0  0
 19 21  1  0  0  0  0
 19 38  1  0  0  0  0
 20 39  1  0  0  0  0
 21 22  2  0  0  0  0
 21 26  1  0  0  0  0
 22 23  1  0  0  0  0
 22 40  1  0  0  0  0
 23 24  2  0  0  0  0
 23 41  1  0  0  0  0
 24 25  1  0  0  0  0
 24 42  1  0  0  0  0
 25 26  2  0  0  0  0
 25 43  1  0  0  0  0
 26 44  1  0  0  0  0
 27 28  2  0  0  0  0
 27 45  1  0  0  0  0
 28 29  1  0  0  0  0
 28 46  1  0  0  0  0
 29 30  2  0  0  0  0
 30 47  1  0  0  0  0
M  END
$$$$
