
 OpenBabel01122422493D

 46 49  0  0  0  0  0  0  0  0999 V2000
    1.0303    0.1325   -0.4102 C   0  0  0  0  0  0  0  0  0  0  0  0
    2.4868   -0.0373   -0.1636 C   0  0  0  0  0  0  0  0  0  0  0  0
    3.2675    1.0312    0.0124 N   0  0  0  0  0  0  0  0  0  0  0  0
    4.5199    0.5384    0.1406 N   0  0  0  0  0  0  0  0  0  0  0  0
    5.6300    1.4204    0.2650 C   0  0  0  0  0  0  0  0  0  0  0  0
    5.3962    2.8064    0.3478 C   0  0  0  0  0  0  0  0  0  0  0  0
    6.4675    3.6953    0.4445 C   0  0  0  0  0  0  0  0  0  0  0  0
    7.7651    3.2017    0.4519 C   0  0  0  0  0  0  0  0  0  0  0  0
    8.7956    4.0528    0.5341 F   0  0  0  0  0  0  0  0  0  0  0  0
    8.0132    1.8357    0.3737 C   0  0  0  0  0  0  0  0  0  0  0  0
    6.9454    0.9380    0.2837 C   0  0  0  0  0  0  0  0  0  0  0  0
    4.5250   -0.8445    0.1082 C   0  0  0  0  0  0  0  0  0  0  0  0
    3.2190   -1.2504   -0.0836 C   0  0  0  0  0  0  0  0  0  0  0  0
    2.6521   -2.5846   -0.2087 C   0  0  0  0  0  0  0  0  0  0  0  0
    1.4580   -2.7101   -0.4587 O   0  0  0  0  0  0  0  0  0  0  0  0
    3.5096   -3.6536    0.0328 N   0  0  0  0  0  0  0  0  0  0  0  0
    3.1093   -4.9762    0.0001 C   0  0  0  0  0  0  0  0  0  0  0  0
    2.0465   -5.4098   -0.6880 C   0  0  0  0  0  0  0  0  0  0  0  0
    1.5147   -6.7840   -0.5391 C   0  0  0  0  0  0  0  0  0  0  0  0
    0.4858   -7.0224   -1.1722 O   0  0  0  0  0  0  0  0  0  0  0  0
    2.1960   -7.6300    0.3617 N   0  0  0  0  0  0  0  0  0  0  0  0
    1.6365   -8.9318    0.6846 C   0  0  0  0  0  0  0  0  0  0  0  0
    0.7245   -9.5860   -0.1608 C   0  0  0  0  0  0  0  0  0  0  0  0
    0.1390  -10.8081    0.1867 C   0  0  0  0  0  0  0  0  0  0  0  0
    0.4680  -11.4212    1.3861 C   0  0  0  0  0  0  0  0  0  0  0  0
    1.3826  -10.8107    2.2367 C   0  0  0  0  0  0  0  0  0  0  0  0
    1.9581   -9.5807    1.8914 C   0  0  0  0  0  0  0  0  0  0  0  0
    3.3785   -7.1762    0.9553 C   0  0  0  0  0  0  0  0  0  0  0  0
    3.8550   -5.9350    0.7788 C   0  0  0  0  0  0  0  0  0  0  0  0
    0.7534    1.1895   -0.5046 H   0  0  0  0  0  0  0  0  0  0  0  0
    0.4473   -0.2972    0.4129 H   0  0  0  0  0  0  0  0  0  0  0  0
    0.7391   -0.3661   -1.3400 H   0  0  0  0  0  0  0  0  0  0  0  0
    4.3835    3.2076    0.3388 H   0  0  0  0  0  0  0  0  0  0  0  0
    6.2955    4.7651    0.5085 H   0  0  0  0  0  0  0  0  0  0  0  0
    9.0375    1.4789    0.3755 H   0  0  0  0  0  0  0  0  0  0  0  0
    7.1775   -0.1189    0.2124 H   0  0  0  0  0  0  0  0  0  0  0  0
    5.4405   -1.4045    0.2058 H   0  0  0  0  0  0  0  0  0  0  0  0
    4.3991   -3.4391    0.4583 H   0  0  0  0  0  0  0  0  0  0  0  0
    1.4484   -4.7843   -1.3387 H   0  0  0  0  0  0  0  0  0  0  0  0
    0.4444   -9.1805   -1.1274 H   0  0  0  0  0  0  0  0  0  0  0  0
   -0.5763  -11.2694   -0.4894 H   0  0  0  0  0  0  0  0  0  0  0  0
    0.0086  -12.3676    1.6583 H   0  0  0  0  0  0  0  0  0  0  0  0
    1.6365  -11.2807    3.1843 H   0  0  0  0  0  0  0  0  0  0  0  0
    2.6186   -9.1271    2.6233 H   0  0  0  0  0  0  0  0  0  0  0  0
    3.9430   -7.8787    1.5591 H   0  0  0  0  0  0  0  0  0  0  0  0
    4.7875   -5.6406    1.2474 H   0  0  0  0  0  0  0  0  0  0  0  0
  1  2  1  0  0  0  0
  1 30  1  0  0  0  0
  1 31  1  0  0  0  0
  1 32  1  0  0  0  0
  2  3  2  0  0  0  0
  2 13  1  0  0  0  0
  3  4  1  0  0  0  0
  4  5  1  0  0  0  0
  4 12  1  0  0  0  0
  5  6  2  0  0  0  0
  5 11  1  0  0  0  0
  6  7  1  0  0  0  0
  6 33  1  0  0  0  0
  7  8  2  0  0  0  0
  7 34  1  0  0  0  0
  8  9  1  0  0  0  0
  8 10  1  0  0  0  0
 10 11  2  0  0  0  0
 10 35  1  0  0  0  0
 11 36  1  0  0  0  0
 12 13  2  0  0  0  0
 12 37  1  0  0  0  0
 13 14  1  0  0  0  0
 14 15  2  0  0  0  0
 14 16  1  0  0  0  0
 16 17  1  0  0  0  0
 16 38  1  0  0  0  0
 17 18  2  0  0  0  0
 17 29  1  0  0  0  0
 18 19  1  0  0  0  0
 18 39  1  0  0  0  0
 19 20  2  0  0  0  0
 19 21  1  0  0  0  0
 21 22  1  0  0  0  0
 21 28  1  0  0  0  0
 22 23  2  0  0  0  0
 22 27  1  0  0  0  0
 23 24  1  0  0  0  0
 23 40  1  0  0  0  0
 24 25  2  0  0  0  0
 24 41  1  0  0  0  0
 25 26  1  0  0  0  0
 25 42  1  0  0  0  0
 26 27  2  0  0  0  0
 26 43  1  0  0  0  0
 27 44  1  0  0  0  0
 28 29  2  0  0  0  0
 28 45  1  0  0  0  0
 29 46  1  0  0  0  0
M  END
$$$$
