
 OpenBabel01122422493D

 46 49  0  0  1  0  0  0  0  0999 V2000
    1.2794   -0.5490   -1.8929 C   0  0  0  0  0  0  0  0  0  0  0  0
    2.6949   -0.6343   -1.7241 O   0  0  0  0  0  0  0  0  0  0  0  0
    3.0876   -1.0985   -0.4980 C   0  0  0  0  0  0  0  0  0  0  0  0
    2.3206   -1.4634    0.3869 O   0  0  0  0  0  0  0  0  0  0  0  0
    4.6171   -1.0860   -0.3937 C   0  0  1  0  0  0  0  0  0  0  0  0
    5.0720   -1.0043    0.9647 O   0  0  0  0  0  0  0  0  0  0  0  0
    5.0107    0.2264    1.5210 C   0  0  0  0  0  0  0  0  0  0  0  0
    4.5771    1.2320    0.9823 O   0  0  0  0  0  0  0  0  0  0  0  0
    5.6065    0.2032    2.8853 C   0  0  0  0  0  0  0  0  0  0  0  0
    5.6275    1.3923    3.6334 C   0  0  0  0  0  0  0  0  0  0  0  0
    6.2142    1.4242    4.9062 C   0  0  0  0  0  0  0  0  0  0  0  0
    6.7897    0.2718    5.4453 C   0  0  0  0  0  0  0  0  0  0  0  0
    7.4070    0.2840    6.7030 N   0  0  0  0  0  0  0  0  0  0  0  0
    7.9964   -0.8413    7.2119 C   0  0  0  0  0  0  0  0  0  0  0  0
    8.0310   -2.0240    6.5901 C   0  0  0  0  0  0  0  0  0  0  0  0
    7.3862   -2.1371    5.2594 C   0  0  0  0  0  0  0  0  0  0  0  0
    7.3816   -3.2058    4.6606 O   0  0  0  0  0  0  0  0  0  0  0  0
    6.7605   -0.9151    4.6904 C   0  0  0  0  0  0  0  0  0  0  0  0
    6.1712   -0.9577    3.4236 C   0  0  0  0  0  0  0  0  0  0  0  0
    5.2558   -2.3410   -0.9703 C   0  0  0  0  0  0  0  0  0  0  0  0
    6.1610   -2.2350   -2.0348 C   0  0  0  0  0  0  0  0  0  0  0  0
    6.8488   -3.3576   -2.4993 C   0  0  0  0  0  0  0  0  0  0  0  0
    6.6548   -4.6157   -1.9113 C   0  0  0  0  0  0  0  0  0  0  0  0
    7.3849   -5.7375   -2.3375 C   0  0  0  0  0  0  0  0  0  0  0  0
    7.1941   -6.9832   -1.7397 C   0  0  0  0  0  0  0  0  0  0  0  0
    6.2608   -7.1247   -0.7172 C   0  0  0  0  0  0  0  0  0  0  0  0
    5.5277   -6.0172   -0.2814 C   0  0  0  0  0  0  0  0  0  0  0  0
    5.7199   -4.7505   -0.8605 C   0  0  0  0  0  0  0  0  0  0  0  0
    5.0280   -3.6096   -0.4057 C   0  0  0  0  0  0  0  0  0  0  0  0
    1.0810   -0.0740   -2.8582 H   0  0  0  0  0  0  0  0  0  0  0  0
    0.8279    0.0684   -1.1093 H   0  0  0  0  0  0  0  0  0  0  0  0
    0.8398   -1.5504   -1.9008 H   0  0  0  0  0  0  0  0  0  0  0  0
    4.9875   -0.2096   -0.9422 H   0  0  0  0  0  0  0  0  0  0  0  0
    5.1956    2.3036    3.2227 H   0  0  0  0  0  0  0  0  0  0  0  0
    6.2228    2.3578    5.4624 H   0  0  0  0  0  0  0  0  0  0  0  0
    7.4112    1.1346    7.2530 H   0  0  0  0  0  0  0  0  0  0  0  0
    8.4540   -0.7079    8.1884 H   0  0  0  0  0  0  0  0  0  0  0  0
    8.5021   -2.9075    6.9988 H   0  0  0  0  0  0  0  0  0  0  0  0
    6.1760   -1.8938    2.8686 H   0  0  0  0  0  0  0  0  0  0  0  0
    6.3609   -1.2709   -2.4972 H   0  0  0  0  0  0  0  0  0  0  0  0
    7.5608   -3.2378   -3.3125 H   0  0  0  0  0  0  0  0  0  0  0  0
    8.1226   -5.6442   -3.1317 H   0  0  0  0  0  0  0  0  0  0  0  0
    7.7770   -7.8392   -2.0689 H   0  0  0  0  0  0  0  0  0  0  0  0
    6.1100   -8.0944   -0.2501 H   0  0  0  0  0  0  0  0  0  0  0  0
    4.8115   -6.1494    0.5269 H   0  0  0  0  0  0  0  0  0  0  0  0
    4.3307   -3.7071    0.4271 H   0  0  0  0  0  0  0  0  0  0  0  0
  1  2  1  0  0  0  0
  1 30  1  0  0  0  0
  1 31  1  0  0  0  0
  1 32  1  0  0  0  0
  2  3  1  0  0  0  0
  3  4  2  0  0  0  0
  3  5  1  0  0  0  0
  5  6  1  0  0  0  0
  5 20  1  0  0  0  0
  5 33  1  6  0  0  0
  6  7  1  0  0  0  0
  7  8  2  0  0  0  0
  7  9  1  0  0  0  0
  9 10  2  0  0  0  0
  9 19  1  0  0  0  0
 10 11  1  0  0  0  0
 10 34  1  0  0  0  0
 11 12  2  0  0  0  0
 11 35  1  0  0  0  0
 12 13  1  0  0  0  0
 12 18  1  0  0  0  0
 13 14  1  0  0  0  0
 13 36  1  0  0  0  0
 14 15  2  0  0  0  0
 14 37  1  0  0  0  0
 15 16  1  0  0  0  0
 15 38  1  0  0  0  0
 16 17  2  0  0  0  0
 16 18  1  0  0  0  0
 18 19  2  0  0  0  0
 19 39  1  0  0  0  0
 20 21  2  0  0  0  0
 20 29  1  0  0  0  0
 21 22  1  0  0  0  0
 21 40  1  0  0  0  0
 22 23  2  0  0  0  0
 22 41  1  0  0  0  0
 23 24  1  0  0  0  0
 23 28  1  0  0  0  0
 24 25  2  0  0  0  0
 24 42  1  0  0  0  0
 25 26  1  0  0  0  0
 25 43  1  0  0  0  0
 26 27  2  0  0  0  0
 26 44  1  0  0  0  0
 27 28  1  0  0  0  0
 27 45  1  0  0  0  0
 28 29  2  0  0  0  0
 29 46  1  0  0  0  0
M  END
$$$$
