
 OpenBabel01122422493D

 39 42  0  0  0  0  0  0  0  0999 V2000
    1.0155    0.0783    0.2645 O   0  0  0  0  0  0  0  0  0  0  0  0
    2.2054    0.0907   -0.0267 C   0  0  0  0  0  0  0  0  0  0  0  0
    2.8162    0.9187   -0.9528 N   0  0  0  0  0  0  0  0  0  0  0  0
    2.1755    1.9677   -1.6434 C   0  0  0  0  0  0  0  0  0  0  0  0
    0.9595    2.5139   -1.2323 C   0  0  0  0  0  0  0  0  0  0  0  0
    0.3394    3.5079   -1.9840 C   0  0  0  0  0  0  0  0  0  0  0  0
   -0.8547    3.9442   -1.5594 F   0  0  0  0  0  0  0  0  0  0  0  0
    0.9040    3.9628   -3.1734 C   0  0  0  0  0  0  0  0  0  0  0  0
    0.2211    4.9002   -3.9774 N   0  0  0  0  0  0  0  0  0  0  0  0
   -0.7036    5.8355   -3.5683 C   0  0  0  0  0  0  0  0  0  0  0  0
   -1.1256    6.4779   -4.7068 C   0  0  0  0  0  0  0  0  0  0  0  0
   -0.4951    5.9739   -5.8082 N   0  0  0  0  0  0  0  0  0  0  0  0
    0.3076    5.0404   -5.3453 C   0  0  0  0  0  0  0  0  0  0  0  0
    2.1395    3.4422   -3.5599 C   0  0  0  0  0  0  0  0  0  0  0  0
    2.7684    3.8840   -4.6580 F   0  0  0  0  0  0  0  0  0  0  0  0
    2.7881    2.4734   -2.7909 C   0  0  0  0  0  0  0  0  0  0  0  0
    3.0817   -0.9088    0.6307 C   0  0  0  0  0  0  0  0  0  0  0  0
    4.4169   -0.6103    0.9436 C   0  0  0  0  0  0  0  0  0  0  0  0
    5.1824   -1.5430    1.6460 C   0  0  0  0  0  0  0  0  0  0  0  0
    4.6141   -2.7688    2.0175 C   0  0  0  0  0  0  0  0  0  0  0  0
    5.3794   -3.6929    2.7418 N   0  0  0  0  0  0  0  0  0  0  0  0
    6.6693   -3.4586    3.1345 C   0  0  0  0  0  0  0  0  0  0  0  0
    7.3184   -4.2724    3.7784 O   0  0  0  0  0  0  0  0  0  0  0  0
    7.2579   -2.1547    2.7417 C   0  0  0  0  0  0  0  0  0  0  0  0
    6.5633   -1.2548    2.0333 C   0  0  0  0  0  0  0  0  0  0  0  0
    3.2914   -3.0573    1.6925 C   0  0  0  0  0  0  0  0  0  0  0  0
    2.7482   -4.2294    2.0571 F   0  0  0  0  0  0  0  0  0  0  0  0
    2.5168   -2.1321    1.0088 C   0  0  0  0  0  0  0  0  0  0  0  0
    3.7394    0.6580   -1.2769 H   0  0  0  0  0  0  0  0  0  0  0  0
    0.4511    2.1856   -0.3310 H   0  0  0  0  0  0  0  0  0  0  0  0
   -0.9599    5.9914   -2.5301 H   0  0  0  0  0  0  0  0  0  0  0  0
   -1.8464    7.2810   -4.7844 H   0  0  0  0  0  0  0  0  0  0  0  0
    0.9288    4.4050   -5.9630 H   0  0  0  0  0  0  0  0  0  0  0  0
    3.7534    2.1083   -3.1297 H   0  0  0  0  0  0  0  0  0  0  0  0
    4.8415    0.3573    0.6949 H   0  0  0  0  0  0  0  0  0  0  0  0
    4.9685   -4.5758    3.0177 H   0  0  0  0  0  0  0  0  0  0  0  0
    8.2766   -1.9757    3.0653 H   0  0  0  0  0  0  0  0  0  0  0  0
    7.0053   -0.3042    1.7559 H   0  0  0  0  0  0  0  0  0  0  0  0
    1.4767   -2.3599    0.7922 H   0  0  0  0  0  0  0  0  0  0  0  0
  1  2  2  0  0  0  0
  2  3  1  0  0  0  0
  2 17  1  0  0  0  0
  3  4  1  0  0  0  0
  3 29  1  0  0  0  0
  4  5  2  0  0  0  0
  4 16  1  0  0  0  0
  5  6  1  0  0  0  0
  5 30  1  0  0  0  0
  6  7  1  0  0  0  0
  6  8  2  0  0  0  0
  8  9  1  0  0  0  0
  8 14  1  0  0  0  0
  9 10  1  0  0  0  0
  9 13  1  0  0  0  0
 10 11  2  0  0  0  0
 10 31  1  0  0  0  0
 11 12  1  0  0  0  0
 11 32  1  0  0  0  0
 12 13  2  0  0  0  0
 13 33  1  0  0  0  0
 14 15  1  0  0  0  0
 14 16  2  0  0  0  0
 16 34  1  0  0  0  0
 17 18  2  0  0  0  0
 17 28  1  0  0  0  0
 18 19  1  0  0  0  0
 18 35  1  0  0  0  0
 19 20  2  0  0  0  0
 19 25  1  0  0  0  0
 20 21  1  0  0  0  0
 20 26  1  0  0  0  0
 21 22  1  0  0  0  0
 21 36  1  0  0  0  0
 22 23  2  0  0  0  0
 22 24  1  0  0  0  0
 24 25  2  0  0  0  0
 24 37  1  0  0  0  0
 25 38  1  0  0  0  0
 26 27  1  0  0  0  0
 26 28  2  0  0  0  0
 28 39  1  0  0  0  0
M  END
$$$$
