
 OpenBabel01122422493D

 47 50  0  0  0  0  0  0  0  0999 V2000
    4.3518    1.5631   -0.6419 N   0  0  0  0  0  0  0  0  0  0  0  0
    3.4935    0.9558   -1.1405 C   0  0  0  0  0  0  0  0  0  0  0  0
    2.4383    0.2113   -1.7504 C   0  0  0  0  0  0  0  0  0  0  0  0
    2.2344   -1.1234   -1.3904 C   0  0  0  0  0  0  0  0  0  0  0  0
    1.2068   -1.8713   -1.9796 C   0  0  0  0  0  0  0  0  0  0  0  0
    1.0219   -3.3363   -1.6550 C   0  0  0  0  0  0  0  0  0  0  0  0
    1.5682   -3.6453   -0.3676 O   0  0  0  0  0  0  0  0  0  0  0  0
    1.8730   -4.9658   -0.1639 C   0  0  0  0  0  0  0  0  0  0  0  0
    2.8542   -5.2263    0.8032 C   0  0  0  0  0  0  0  0  0  0  0  0
    3.2001   -6.5438    1.1120 C   0  0  0  0  0  0  0  0  0  0  0  0
    4.1702   -6.8063    2.1005 N   0  0  0  0  0  0  0  0  0  0  0  0
    3.9655   -7.7512    3.0951 C   0  0  0  0  0  0  0  0  0  0  0  0
    2.9281   -8.3977    3.2320 O   0  0  0  0  0  0  0  0  0  0  0  0
    5.0677   -7.8968    4.0645 C   0  0  0  0  0  0  0  0  0  0  0  0
    6.2936   -7.3485    3.9258 N   0  0  0  0  0  0  0  0  0  0  0  0
    7.0018   -7.7961    5.0090 N   0  0  0  0  0  0  0  0  0  0  0  0
    8.3643   -7.4561    5.2137 C   0  0  0  0  0  0  0  0  0  0  0  0
    9.0795   -7.9119    6.3276 C   0  0  0  0  0  0  0  0  0  0  0  0
   10.4092   -7.5264    6.4981 C   0  0  0  0  0  0  0  0  0  0  0  0
   10.9799   -6.6987    5.5470 C   0  0  0  0  0  0  0  0  0  0  0  0
   10.3235   -6.2521    4.4556 N   0  0  0  0  0  0  0  0  0  0  0  0
    9.0300   -6.6402    4.3093 C   0  0  0  0  0  0  0  0  0  0  0  0
    6.2185   -8.5682    5.8363 C   0  0  0  0  0  0  0  0  0  0  0  0
    4.9782   -8.6447    5.2627 C   0  0  0  0  0  0  0  0  0  0  0  0
    2.5874   -7.5950    0.4211 C   0  0  0  0  0  0  0  0  0  0  0  0
    1.6270   -7.3365   -0.5557 C   0  0  0  0  0  0  0  0  0  0  0  0
    1.2526   -6.0240   -0.8319 C   0  0  0  0  0  0  0  0  0  0  0  0
    0.4018   -1.2638   -2.9498 C   0  0  0  0  0  0  0  0  0  0  0  0
    0.6014    0.0694   -3.3149 C   0  0  0  0  0  0  0  0  0  0  0  0
    1.6181    0.8076   -2.7114 C   0  0  0  0  0  0  0  0  0  0  0  0
    2.8846   -1.5828   -0.6474 H   0  0  0  0  0  0  0  0  0  0  0  0
    1.5341   -3.9035   -2.4424 H   0  0  0  0  0  0  0  0  0  0  0  0
   -0.0502   -3.5731   -1.6516 H   0  0  0  0  0  0  0  0  0  0  0  0
    3.2973   -4.3965    1.3467 H   0  0  0  0  0  0  0  0  0  0  0  0
    4.8986   -6.1267    2.2894 H   0  0  0  0  0  0  0  0  0  0  0  0
    8.6446   -8.5625    7.0791 H   0  0  0  0  0  0  0  0  0  0  0  0
   10.9835   -7.8585    7.3541 H   0  0  0  0  0  0  0  0  0  0  0  0
   12.0099   -6.3641    5.6439 H   0  0  0  0  0  0  0  0  0  0  0  0
    8.5477   -6.2522    3.4156 H   0  0  0  0  0  0  0  0  0  0  0  0
    6.5872   -9.0010    6.7530 H   0  0  0  0  0  0  0  0  0  0  0  0
    4.1118   -9.1713    5.6397 H   0  0  0  0  0  0  0  0  0  0  0  0
    2.8699   -8.6263    0.6188 H   0  0  0  0  0  0  0  0  0  0  0  0
    1.1664   -8.1588   -1.0964 H   0  0  0  0  0  0  0  0  0  0  0  0
    0.4696   -5.8592   -1.5647 H   0  0  0  0  0  0  0  0  0  0  0  0
   -0.3871   -1.8289   -3.4479 H   0  0  0  0  0  0  0  0  0  0  0  0
   -0.0223    0.5288   -4.0742 H   0  0  0  0  0  0  0  0  0  0  0  0
    1.7812    1.8413   -3.0085 H   0  0  0  0  0  0  0  0  0  0  0  0
  1  2  3  0  0  0  0
  2  3  1  0  0  0  0
  3  4  2  0  0  0  0
  3 30  1  0  0  0  0
  4  5  1  0  0  0  0
  4 31  1  0  0  0  0
  5  6  1  0  0  0  0
  5 28  2  0  0  0  0
  6  7  1  0  0  0  0
  6 32  1  0  0  0  0
  6 33  1  0  0  0  0
  7  8  1  0  0  0  0
  8  9  2  0  0  0  0
  8 27  1  0  0  0  0
  9 10  1  0  0  0  0
  9 34  1  0  0  0  0
 10 11  1  0  0  0  0
 10 25  2  0  0  0  0
 11 12  1  0  0  0  0
 11 35  1  0  0  0  0
 12 13  2  0  0  0  0
 12 14  1  0  0  0  0
 14 15  2  0  0  0  0
 14 24  1  0  0  0  0
 15 16  1  0  0  0  0
 16 17  1  0  0  0  0
 16 23  1  0  0  0  0
 17 18  2  0  0  0  0
 17 22  1  0  0  0  0
 18 19  1  0  0  0  0
 18 36  1  0  0  0  0
 19 20  2  0  0  0  0
 19 37  1  0  0  0  0
 20 21  1  0  0  0  0
 20 38  1  0  0  0  0
 21 22  2  0  0  0  0
 22 39  1  0  0  0  0
 23 24  2  0  0  0  0
 23 40  1  0  0  0  0
 24 41  1  0  0  0  0
 25 26  1  0  0  0  0
 25 42  1  0  0  0  0
 26 27  2  0  0  0  0
 26 43  1  0  0  0  0
 27 44  1  0  0  0  0
 28 29  1  0  0  0  0
 28 45  1  0  0  0  0
 29 30  2  0  0  0  0
 29 46  1  0  0  0  0
 30 47  1  0  0  0  0
M  END
$$$$
