
 OpenBabel01122422493D

 46 49  0  0  0  0  0  0  0  0999 V2000
    1.0730   -0.1321   -0.2265 O   0  0  0  0  0  0  0  0  0  0  0  0
    2.2907   -0.2245   -0.1120 C   0  0  0  0  0  0  0  0  0  0  0  0
    2.9782   -0.6795    0.9998 N   0  0  0  0  0  0  0  0  0  0  0  0
    2.3699   -1.1213    2.1990 C   0  0  0  0  0  0  0  0  0  0  0  0
    1.0129   -1.4201    2.3166 C   0  0  0  0  0  0  0  0  0  0  0  0
    0.4845   -1.7996    3.5492 C   0  0  0  0  0  0  0  0  0  0  0  0
    1.3394   -1.8836    4.6328 C   0  0  0  0  0  0  0  0  0  0  0  0
    2.6644   -1.6340    4.5609 N   0  0  0  0  0  0  0  0  0  0  0  0
    3.1443   -1.2625    3.3476 C   0  0  0  0  0  0  0  0  0  0  0  0
    3.1220    0.2765   -1.2327 C   0  0  0  0  0  0  0  0  0  0  0  0
    2.6574    1.4133   -1.8924 C   0  0  0  0  0  0  0  0  0  0  0  0
    3.3217    1.8927   -3.0164 C   0  0  0  0  0  0  0  0  0  0  0  0
    4.4503    1.2403   -3.5205 C   0  0  0  0  0  0  0  0  0  0  0  0
    5.1134    1.6512   -4.7058 N   0  0  0  0  0  0  0  0  0  0  0  0
    4.6578    2.6387   -5.5694 C   0  0  0  0  0  0  0  0  0  0  0  0
    3.6386    3.2998   -5.4124 O   0  0  0  0  0  0  0  0  0  0  0  0
    5.4520    2.9127   -6.8015 C   0  0  0  0  0  0  0  0  0  0  0  0
    6.0094    1.8248   -7.4990 C   0  0  0  0  0  0  0  0  0  0  0  0
    6.5542    2.0063   -8.7701 C   0  0  0  0  0  0  0  0  0  0  0  0
    6.5192    3.2618   -9.3661 C   0  0  0  0  0  0  0  0  0  0  0  0
    5.9976    4.3537   -8.6689 C   0  0  0  0  0  0  0  0  0  0  0  0
    5.4855    4.2149   -7.3657 C   0  0  0  0  0  0  0  0  0  0  0  0
    5.0506    5.4420   -6.6709 C   0  0  0  0  0  0  0  0  0  0  0  0
    4.4705    6.6100   -7.1368 C   0  0  0  0  0  0  0  0  0  0  0  0
    4.3155    7.4354   -6.0078 C   0  0  0  0  0  0  0  0  0  0  0  0
    4.7874    6.8677   -4.8992 N   0  0  0  0  0  0  0  0  0  0  0  0
    5.1761    5.6507   -5.3153 N   0  0  0  0  0  0  0  0  0  0  0  0
    4.9315    0.1143   -2.8351 C   0  0  0  0  0  0  0  0  0  0  0  0
    4.2686   -0.3732   -1.6968 C   0  0  0  0  0  0  0  0  0  0  0  0
    3.9789   -0.5297    1.0228 H   0  0  0  0  0  0  0  0  0  0  0  0
    0.3363   -1.3719    1.4696 H   0  0  0  0  0  0  0  0  0  0  0  0
   -0.5726   -2.0182    3.6514 H   0  0  0  0  0  0  0  0  0  0  0  0
    0.9673   -2.1604    5.6150 H   0  0  0  0  0  0  0  0  0  0  0  0
    4.2095   -1.0534    3.3423 H   0  0  0  0  0  0  0  0  0  0  0  0
    1.7593    1.9250   -1.5475 H   0  0  0  0  0  0  0  0  0  0  0  0
    2.9009    2.7800   -3.4757 H   0  0  0  0  0  0  0  0  0  0  0  0
    5.9482    1.1380   -4.9541 H   0  0  0  0  0  0  0  0  0  0  0  0
    5.9729    0.8156   -7.0991 H   0  0  0  0  0  0  0  0  0  0  0  0
    6.9675    1.1602   -9.3143 H   0  0  0  0  0  0  0  0  0  0  0  0
    6.8962    3.3970  -10.3775 H   0  0  0  0  0  0  0  0  0  0  0  0
    5.9975    5.3259   -9.1590 H   0  0  0  0  0  0  0  0  0  0  0  0
    4.1806    6.8348   -8.1527 H   0  0  0  0  0  0  0  0  0  0  0  0
    3.8854    8.4264   -5.9464 H   0  0  0  0  0  0  0  0  0  0  0  0
    5.5085    4.9969   -4.6164 H   0  0  0  0  0  0  0  0  0  0  0  0
    5.8009   -0.4269   -3.2008 H   0  0  0  0  0  0  0  0  0  0  0  0
    4.6237   -1.2820   -1.2167 H   0  0  0  0  0  0  0  0  0  0  0  0
  1  2  2  0  0  0  0
  2  3  1  0  0  0  0
  2 10  1  0  0  0  0
  3  4  1  0  0  0  0
  3 30  1  0  0  0  0
  4  5  2  0  0  0  0
  4  9  1  0  0  0  0
  5  6  1  0  0  0  0
  5 31  1  0  0  0  0
  6  7  2  0  0  0  0
  6 32  1  0  0  0  0
  7  8  1  0  0  0  0
  7 33  1  0  0  0  0
  8  9  2  0  0  0  0
  9 34  1  0  0  0  0
 10 11  2  0  0  0  0
 10 29  1  0  0  0  0
 11 12  1  0  0  0  0
 11 35  1  0  0  0  0
 12 13  2  0  0  0  0
 12 36  1  0  0  0  0
 13 14  1  0  0  0  0
 13 28  1  0  0  0  0
 14 15  1  0  0  0  0
 14 37  1  0  0  0  0
 15 16  2  0  0  0  0
 15 17  1  0  0  0  0
 17 18  2  0  0  0  0
 17 22  1  0  0  0  0
 18 19  1  0  0  0  0
 18 38  1  0  0  0  0
 19 20  2  0  0  0  0
 19 39  1  0  0  0  0
 20 21  1  0  0  0  0
 20 40  1  0  0  0  0
 21 22  2  0  0  0  0
 21 41  1  0  0  0  0
 22 23  1  0  0  0  0
 23 24  2  0  0  0  0
 23 27  1  0  0  0  0
 24 25  1  0  0  0  0
 24 42  1  0  0  0  0
 25 26  2  0  0  0  0
 25 43  1  0  0  0  0
 26 27  1  0  0  0  0
 27 44  1  0  0  0  0
 28 29  2  0  0  0  0
 28 45  1  0  0  0  0
 29 46  1  0  0  0  0
M  END
$$$$
