
 OpenBabel01122422463D

 48 51  0  0  0  0  0  0  0  0999 V2000
    0.8446   -0.4418    0.0771 O   0  0  0  0  0  0  0  0  0  0  0  0
    2.0637   -0.4154    0.1849 C   0  0  0  0  0  0  0  0  0  0  0  0
    2.8316    0.6324    0.6438 N   0  0  0  0  0  0  0  0  0  0  0  0
    2.3444    1.7796    1.2924 C   0  0  0  0  0  0  0  0  0  0  0  0
    1.2380    1.6925    2.1533 C   0  0  0  0  0  0  0  0  0  0  0  0
    0.8657    2.7834    2.9368 C   0  0  0  0  0  0  0  0  0  0  0  0
    1.5766    3.9725    2.8412 C   0  0  0  0  0  0  0  0  0  0  0  0
    2.6559    4.0765    1.9600 C   0  0  0  0  0  0  0  0  0  0  0  0
    3.0580    2.9904    1.1732 C   0  0  0  0  0  0  0  0  0  0  0  0
    4.1350    3.0640    0.2444 N   0  0  0  0  0  0  0  0  0  0  0  0
    4.9905    4.1372    0.0679 C   0  0  0  0  0  0  0  0  0  0  0  0
    4.9093    5.2225    0.6256 O   0  0  0  0  0  0  0  0  0  0  0  0
    6.1509    3.9039   -0.8539 C   0  0  0  0  0  0  0  0  0  0  0  0
    7.1112    4.9074   -0.9135 C   0  0  0  0  0  0  0  0  0  0  0  0
    8.2771    4.6662   -1.6151 C   0  0  0  0  0  0  0  0  0  0  0  0
    8.4166    3.4712   -2.3156 C   0  0  0  0  0  0  0  0  0  0  0  0
    9.5675    3.2459   -3.0859 C   0  0  0  0  0  0  0  0  0  0  0  0
    9.6758    2.0971   -3.8588 C   0  0  0  0  0  0  0  0  0  0  0  0
    8.6489    1.1609   -3.8349 C   0  0  0  0  0  0  0  0  0  0  0  0
    7.5190    1.3715   -3.0288 C   0  0  0  0  0  0  0  0  0  0  0  0
    7.3650    2.5203   -2.2577 C   0  0  0  0  0  0  0  0  0  0  0  0
    6.2524    2.7092   -1.5043 N   0  0  0  0  0  0  0  0  0  0  0  0
    2.8586   -1.5622   -0.2881 C   0  0  0  0  0  0  0  0  0  0  0  0
    3.9501   -2.0313    0.4440 C   0  0  0  0  0  0  0  0  0  0  0  0
    4.7194   -3.0827   -0.0603 C   0  0  0  0  0  0  0  0  0  0  0  0
    5.8809   -3.6475    0.7009 C   0  0  0  0  0  0  0  0  0  0  0  0
    6.5415   -2.6316    1.4470 O   0  0  0  0  0  0  0  0  0  0  0  0
    4.3182   -3.6386   -1.2719 C   0  0  0  0  0  0  0  0  0  0  0  0
    3.2559   -3.2095   -1.9963 N   0  0  0  0  0  0  0  0  0  0  0  0
    2.5380   -2.1825   -1.4826 C   0  0  0  0  0  0  0  0  0  0  0  0
    3.8218    0.6192    0.4468 H   0  0  0  0  0  0  0  0  0  0  0  0
    0.6977    0.7555    2.2768 H   0  0  0  0  0  0  0  0  0  0  0  0
    0.0362    2.6989    3.6311 H   0  0  0  0  0  0  0  0  0  0  0  0
    1.2965    4.8288    3.4506 H   0  0  0  0  0  0  0  0  0  0  0  0
    3.1558    5.0374    1.9141 H   0  0  0  0  0  0  0  0  0  0  0  0
    4.2925    2.2868   -0.3801 H   0  0  0  0  0  0  0  0  0  0  0  0
    6.9666    5.8504   -0.3958 H   0  0  0  0  0  0  0  0  0  0  0  0
    9.0590    5.4207   -1.6180 H   0  0  0  0  0  0  0  0  0  0  0  0
   10.3717    3.9792   -3.1092 H   0  0  0  0  0  0  0  0  0  0  0  0
   10.5500    1.9455   -4.4878 H   0  0  0  0  0  0  0  0  0  0  0  0
    8.7201    0.2678   -4.4515 H   0  0  0  0  0  0  0  0  0  0  0  0
    6.7296    0.6241   -3.0289 H   0  0  0  0  0  0  0  0  0  0  0  0
    4.1906   -1.5981    1.4135 H   0  0  0  0  0  0  0  0  0  0  0  0
    6.6163   -4.0941    0.0247 H   0  0  0  0  0  0  0  0  0  0  0  0
    5.5302   -4.4154    1.3974 H   0  0  0  0  0  0  0  0  0  0  0  0
    6.8770   -1.9781    0.8100 H   0  0  0  0  0  0  0  0  0  0  0  0
    4.8513   -4.4778   -1.7136 H   0  0  0  0  0  0  0  0  0  0  0  0
    1.6919   -1.8557   -2.0817 H   0  0  0  0  0  0  0  0  0  0  0  0
  1  2  2  0  0  0  0
  2  3  1  0  0  0  0
  2 23  1  0  0  0  0
  3  4  1  0  0  0  0
  3 31  1  0  0  0  0
  4  5  2  0  0  0  0
  4  9  1  0  0  0  0
  5  6  1  0  0  0  0
  5 32  1  0  0  0  0
  6  7  2  0  0  0  0
  6 33  1  0  0  0  0
  7  8  1  0  0  0  0
  7 34  1  0  0  0  0
  8  9  2  0  0  0  0
  8 35  1  0  0  0  0
  9 10  1  0  0  0  0
 10 11  1  0  0  0  0
 10 36  1  0  0  0  0
 11 12  2  0  0  0  0
 11 13  1  0  0  0  0
 13 14  2  0  0  0  0
 13 22  1  0  0  0  0
 14 15  1  0  0  0  0
 14 37  1  0  0  0  0
 15 16  2  0  0  0  0
 15 38  1  0  0  0  0
 16 17  1  0  0  0  0
 16 21  1  0  0  0  0
 17 18  2  0  0  0  0
 17 39  1  0  0  0  0
 18 19  1  0  0  0  0
 18 40  1  0  0  0  0
 19 20  2  0  0  0  0
 19 41  1  0  0  0  0
 20 21  1  0  0  0  0
 20 42  1  0  0  0  0
 21 22  2  0  0  0  0
 23 24  2  0  0  0  0
 23 30  1  0  0  0  0
 24 25  1  0  0  0  0
 24 43  1  0  0  0  0
 25 26  1  0  0  0  0
 25 28  2  0  0  0  0
 26 27  1  0  0  0  0
 26 44  1  0  0  0  0
 26 45  1  0  0  0  0
 27 46  1  0  0  0  0
 28 29  1  0  0  0  0
 28 47  1  0  0  0  0
 29 30  2  0  0  0  0
 30 48  1  0  0  0  0
M  END
$$$$
