
 OpenBabel01122422493D

 44 47  0  0  0  0  0  0  0  0999 V2000
    1.0982    0.1895    0.0507 O   0  0  0  0  0  0  0  0  0  0  0  0
    2.3213    0.0612    0.0716 C   0  0  0  0  0  0  0  0  0  0  0  0
    3.0154   -0.1606    1.2341 N   0  0  0  0  0  0  0  0  0  0  0  0
    2.3505   -0.2552    2.5164 C   0  0  0  0  0  0  0  0  0  0  0  0
    3.3553   -0.5730    3.6264 C   0  0  0  0  0  0  0  0  0  0  0  0
    4.5403   -0.7735    3.3647 O   0  0  0  0  0  0  0  0  0  0  0  0
    2.8467   -0.6414    5.0451 C   0  0  0  0  0  0  0  0  0  0  0  0
    1.5194   -1.0630    5.2533 C   0  0  0  0  0  0  0  0  0  0  0  0
    1.0056   -1.1819    6.5419 C   0  0  0  0  0  0  0  0  0  0  0  0
    1.8093   -0.8817    7.6320 C   0  0  0  0  0  0  0  0  0  0  0  0
    1.2822   -1.0133    8.8600 F   0  0  0  0  0  0  0  0  0  0  0  0
    3.1345   -0.4563    7.4752 C   0  0  0  0  0  0  0  0  0  0  0  0
    3.9168   -0.1640    8.6082 C   0  0  0  0  0  0  0  0  0  0  0  0
    5.2377    0.2576    8.4829 C   0  0  0  0  0  0  0  0  0  0  0  0
    5.7900    0.4026    7.2208 C   0  0  0  0  0  0  0  0  0  0  0  0
    5.0237    0.1227    6.0853 C   0  0  0  0  0  0  0  0  0  0  0  0
    3.6811   -0.3262    6.1657 C   0  0  0  0  0  0  0  0  0  0  0  0
    3.1363    0.1402   -1.1216 C   0  0  0  0  0  0  0  0  0  0  0  0
    4.4863   -0.0937   -1.3139 C   0  0  0  0  0  0  0  0  0  0  0  0
    4.8045    0.1256   -2.6812 C   0  0  0  0  0  0  0  0  0  0  0  0
    6.0937   -0.0218   -3.3390 C   0  0  0  0  0  0  0  0  0  0  0  0
    6.1879   -0.3516   -4.6866 C   0  0  0  0  0  0  0  0  0  0  0  0
    7.4483   -0.5399   -5.2460 C   0  0  0  0  0  0  0  0  0  0  0  0
    8.5747   -0.3890   -4.4476 C   0  0  0  0  0  0  0  0  0  0  0  0
    8.3934   -0.0538   -3.1162 C   0  0  0  0  0  0  0  0  0  0  0  0
    7.1826    0.1243   -2.5432 N   0  0  0  0  0  0  0  0  0  0  0  0
    3.6259    0.5012   -3.2969 C   0  0  0  0  0  0  0  0  0  0  0  0
    2.6252    0.4850   -2.3573 N   0  0  0  0  0  0  0  0  0  0  0  0
    4.0304   -0.1741    1.2351 H   0  0  0  0  0  0  0  0  0  0  0  0
    1.6061   -1.0499    2.4352 H   0  0  0  0  0  0  0  0  0  0  0  0
    1.8735    0.7074    2.7139 H   0  0  0  0  0  0  0  0  0  0  0  0
    0.8628   -1.3315    4.4303 H   0  0  0  0  0  0  0  0  0  0  0  0
   -0.0139   -1.5175    6.7067 H   0  0  0  0  0  0  0  0  0  0  0  0
    3.4935   -0.2686    9.6067 H   0  0  0  0  0  0  0  0  0  0  0  0
    5.8307    0.4709    9.3690 H   0  0  0  0  0  0  0  0  0  0  0  0
    6.8230    0.7251    7.1074 H   0  0  0  0  0  0  0  0  0  0  0  0
    5.5133    0.2604    5.1222 H   0  0  0  0  0  0  0  0  0  0  0  0
    5.1961   -0.4102   -0.5583 H   0  0  0  0  0  0  0  0  0  0  0  0
    5.3000   -0.4892   -5.2929 H   0  0  0  0  0  0  0  0  0  0  0  0
    7.5453   -0.8146   -6.2921 H   0  0  0  0  0  0  0  0  0  0  0  0
    9.5697   -0.5378   -4.8512 H   0  0  0  0  0  0  0  0  0  0  0  0
    9.2432    0.0779   -2.4525 H   0  0  0  0  0  0  0  0  0  0  0  0
    3.4082    0.7802   -4.3189 H   0  0  0  0  0  0  0  0  0  0  0  0
    1.6512    0.7049   -2.5266 H   0  0  0  0  0  0  0  0  0  0  0  0
  1  2  2  0  0  0  0
  2  3  1  0  0  0  0
  2 18  1  0  0  0  0
  3  4  1  0  0  0  0
  3 29  1  0  0  0  0
  4  5  1  0  0  0  0
  4 30  1  0  0  0  0
  4 31  1  0  0  0  0
  5  6  2  0  0  0  0
  5  7  1  0  0  0  0
  7  8  2  0  0  0  0
  7 17  1  0  0  0  0
  8  9  1  0  0  0  0
  8 32  1  0  0  0  0
  9 10  2  0  0  0  0
  9 33  1  0  0  0  0
 10 11  1  0  0  0  0
 10 12  1  0  0  0  0
 12 13  2  0  0  0  0
 12 17  1  0  0  0  0
 13 14  1  0  0  0  0
 13 34  1  0  0  0  0
 14 15  2  0  0  0  0
 14 35  1  0  0  0  0
 15 16  1  0  0  0  0
 15 36  1  0  0  0  0
 16 17  2  0  0  0  0
 16 37  1  0  0  0  0
 18 19  2  0  0  0  0
 18 28  1  0  0  0  0
 19 20  1  0  0  0  0
 19 38  1  0  0  0  0
 20 21  1  0  0  0  0
 20 27  2  0  0  0  0
 21 22  2  0  0  0  0
 21 26  1  0  0  0  0
 22 23  1  0  0  0  0
 22 39  1  0  0  0  0
 23 24  2  0  0  0  0
 23 40  1  0  0  0  0
 24 25  1  0  0  0  0
 24 41  1  0  0  0  0
 25 26  2  0  0  0  0
 25 42  1  0  0  0  0
 27 28  1  0  0  0  0
 27 43  1  0  0  0  0
 28 44  1  0  0  0  0
M  END
$$$$
