
 OpenBabel01122422493D

 43 46  0  0  0  0  0  0  0  0999 V2000
    2.5847   -0.4801    0.9413 O   0  0  0  0  0  0  0  0  0  0  0  0
    2.0153    0.1941    0.0890 C   0  0  0  0  0  0  0  0  0  0  0  0
    0.6755    0.5386    0.0478 N   0  0  0  0  0  0  0  0  0  0  0  0
   -0.2720    0.2802    1.0184 C   0  0  0  0  0  0  0  0  0  0  0  0
   -0.0569   -0.3075    2.1913 N   0  0  0  0  0  0  0  0  0  0  0  0
   -1.2565   -0.3250    2.8224 N   0  0  0  0  0  0  0  0  0  0  0  0
   -1.3822   -0.8425    4.1408 C   0  0  0  0  0  0  0  0  0  0  0  0
   -0.2496   -1.3306    4.7969 C   0  0  0  0  0  0  0  0  0  0  0  0
   -0.3968   -1.7983    6.0920 C   0  0  0  0  0  0  0  0  0  0  0  0
   -1.5696   -1.8144    6.7590 N   0  0  0  0  0  0  0  0  0  0  0  0
   -2.6500   -1.3438    6.0999 C   0  0  0  0  0  0  0  0  0  0  0  0
   -2.6118   -0.8575    4.8031 C   0  0  0  0  0  0  0  0  0  0  0  0
   -2.2419    0.2306    2.0344 C   0  0  0  0  0  0  0  0  0  0  0  0
   -1.6306    0.6456    0.8777 C   0  0  0  0  0  0  0  0  0  0  0  0
    2.8163    0.6854   -1.0757 C   0  0  0  0  0  0  0  0  0  0  0  0
    2.4700    1.8894   -1.7165 C   0  0  0  0  0  0  0  0  0  0  0  0
    3.1725    2.3143   -2.8399 C   0  0  0  0  0  0  0  0  0  0  0  0
    4.2075    1.5215   -3.2866 C   0  0  0  0  0  0  0  0  0  0  0  0
    4.5836    0.3856   -2.6732 N   0  0  0  0  0  0  0  0  0  0  0  0
    3.9409   -0.0126   -1.5404 C   0  0  0  0  0  0  0  0  0  0  0  0
    4.3964   -1.2115   -0.9406 N   0  0  0  0  0  0  0  0  0  0  0  0
    5.7330   -1.6792   -1.0710 C   0  0  0  0  0  0  0  0  0  0  0  0
    6.8596   -0.8351   -1.1103 C   0  0  0  0  0  0  0  0  0  0  0  0
    6.7365    0.4897   -0.9212 F   0  0  0  0  0  0  0  0  0  0  0  0
    8.1310   -1.3570   -1.3340 C   0  0  0  0  0  0  0  0  0  0  0  0
    9.1903   -0.5387   -1.4249 F   0  0  0  0  0  0  0  0  0  0  0  0
    8.3225   -2.7263   -1.4720 C   0  0  0  0  0  0  0  0  0  0  0  0
    7.2309   -3.5841   -1.3471 C   0  0  0  0  0  0  0  0  0  0  0  0
    5.9492   -3.0639   -1.1277 C   0  0  0  0  0  0  0  0  0  0  0  0
    0.3098    0.9819   -0.7812 H   0  0  0  0  0  0  0  0  0  0  0  0
    0.7301   -1.3453    4.3250 H   0  0  0  0  0  0  0  0  0  0  0  0
    0.4590   -2.1775    6.6470 H   0  0  0  0  0  0  0  0  0  0  0  0
   -3.5801   -1.3727    6.6603 H   0  0  0  0  0  0  0  0  0  0  0  0
   -3.5345   -0.5002    4.3582 H   0  0  0  0  0  0  0  0  0  0  0  0
   -3.2684    0.3129    2.3580 H   0  0  0  0  0  0  0  0  0  0  0  0
   -2.1072    1.1477    0.0484 H   0  0  0  0  0  0  0  0  0  0  0  0
    1.6744    2.5262   -1.3404 H   0  0  0  0  0  0  0  0  0  0  0  0
    2.9235    3.2336   -3.3523 H   0  0  0  0  0  0  0  0  0  0  0  0
    4.7879    1.7841   -4.1663 H   0  0  0  0  0  0  0  0  0  0  0  0
    4.0697   -1.2741    0.0299 H   0  0  0  0  0  0  0  0  0  0  0  0
    9.3177   -3.1128   -1.6684 H   0  0  0  0  0  0  0  0  0  0  0  0
    7.3704   -4.6581   -1.4424 H   0  0  0  0  0  0  0  0  0  0  0  0
    5.1025   -3.7427   -1.0561 H   0  0  0  0  0  0  0  0  0  0  0  0
  1  2  2  0  0  0  0
  2  3  1  0  0  0  0
  2 15  1  0  0  0  0
  3  4  1  0  0  0  0
  3 30  1  0  0  0  0
  4  5  2  0  0  0  0
  4 14  1  0  0  0  0
  5  6  1  0  0  0  0
  6  7  1  0  0  0  0
  6 13  1  0  0  0  0
  7  8  2  0  0  0  0
  7 12  1  0  0  0  0
  8  9  1  0  0  0  0
  8 31  1  0  0  0  0
  9 10  2  0  0  0  0
  9 32  1  0  0  0  0
 10 11  1  0  0  0  0
 11 12  2  0  0  0  0
 11 33  1  0  0  0  0
 12 34  1  0  0  0  0
 13 14  2  0  0  0  0
 13 35  1  0  0  0  0
 14 36  1  0  0  0  0
 15 16  2  0  0  0  0
 15 20  1  0  0  0  0
 16 17  1  0  0  0  0
 16 37  1  0  0  0  0
 17 18  2  0  0  0  0
 17 38  1  0  0  0  0
 18 19  1  0  0  0  0
 18 39  1  0  0  0  0
 19 20  2  0  0  0  0
 20 21  1  0  0  0  0
 21 22  1  0  0  0  0
 21 40  1  0  0  0  0
 22 23  2  0  0  0  0
 22 29  1  0  0  0  0
 23 24  1  0  0  0  0
 23 25  1  0  0  0  0
 25 26  1  0  0  0  0
 25 27  2  0  0  0  0
 27 28  1  0  0  0  0
 27 41  1  0  0  0  0
 28 29  2  0  0  0  0
 28 42  1  0  0  0  0
 29 43  1  0  0  0  0
M  END
$$$$
