
 OpenBabel01122422493D

 43 46  0  0  0  0  0  0  0  0999 V2000
    0.2413    2.2111   -1.1611 C   0  0  0  0  0  0  0  0  0  0  0  0
    0.5333    0.8586   -0.7468 N   0  0  0  0  0  0  0  0  0  0  0  0
    1.7435    0.3347   -0.3856 C   0  0  0  0  0  0  0  0  0  0  0  0
    1.5152   -1.0012   -0.1512 C   0  0  0  0  0  0  0  0  0  0  0  0
    2.4819   -1.8892    0.1980 O   0  0  0  0  0  0  0  0  0  0  0  0
    2.3764   -3.2266   -0.1279 C   0  0  0  0  0  0  0  0  0  0  0  0
    1.8059   -3.6459   -1.3211 C   0  0  0  0  0  0  0  0  0  0  0  0
    1.7043   -5.0136   -1.6128 C   0  0  0  0  0  0  0  0  0  0  0  0
    2.1933   -5.9944   -0.7454 C   0  0  0  0  0  0  0  0  0  0  0  0
    2.0789   -7.3919   -1.0217 N   0  0  0  0  0  0  0  0  0  0  0  0
    1.3694   -7.9346   -2.0881 C   0  0  0  0  0  0  0  0  0  0  0  0
    0.6665   -7.2917   -2.8659 O   0  0  0  0  0  0  0  0  0  0  0  0
    1.4666   -9.3904   -2.3812 C   0  0  0  0  0  0  0  0  0  0  0  0
    1.8819  -10.4168   -1.5382 C   0  0  0  0  0  0  0  0  0  0  0  0
    2.1190  -10.1395   -0.2135 O   0  0  0  0  0  0  0  0  0  0  0  0
    2.0431  -11.7455   -2.0305 C   0  0  0  0  0  0  0  0  0  0  0  0
    2.6525  -12.7964   -1.2980 C   0  0  0  0  0  0  0  0  0  0  0  0
    2.8633  -14.0502   -1.8770 C   0  0  0  0  0  0  0  0  0  0  0  0
    2.4112  -14.2891   -3.1644 C   0  0  0  0  0  0  0  0  0  0  0  0
    2.6253  -15.4872   -3.7254 F   0  0  0  0  0  0  0  0  0  0  0  0
    1.7752  -13.2881   -3.8819 C   0  0  0  0  0  0  0  0  0  0  0  0
    1.3398  -13.5640   -5.1237 F   0  0  0  0  0  0  0  0  0  0  0  0
    1.6222  -12.0068   -3.3585 C   0  0  0  0  0  0  0  0  0  0  0  0
    1.1184  -11.0412   -4.1384 N   0  0  0  0  0  0  0  0  0  0  0  0
    1.0879   -9.7747   -3.6621 C   0  0  0  0  0  0  0  0  0  0  0  0
    2.8365   -5.5585    0.4200 C   0  0  0  0  0  0  0  0  0  0  0  0
    2.9259   -4.1820    0.7274 C   0  0  0  0  0  0  0  0  0  0  0  0
    0.1285   -1.1717   -0.3375 C   0  0  0  0  0  0  0  0  0  0  0  0
   -0.4745   -0.0400   -0.7159 N   0  0  0  0  0  0  0  0  0  0  0  0
    1.1465    2.8187   -1.0936 H   0  0  0  0  0  0  0  0  0  0  0  0
   -0.5322    2.6164   -0.5033 H   0  0  0  0  0  0  0  0  0  0  0  0
   -0.1160    2.1868   -2.1947 H   0  0  0  0  0  0  0  0  0  0  0  0
    2.6391    0.9368   -0.3524 H   0  0  0  0  0  0  0  0  0  0  0  0
    1.4288   -2.9393   -2.0544 H   0  0  0  0  0  0  0  0  0  0  0  0
    1.2333   -5.2573   -2.5604 H   0  0  0  0  0  0  0  0  0  0  0  0
    2.5266   -8.0425   -0.3830 H   0  0  0  0  0  0  0  0  0  0  0  0
    1.6754  -10.8411    0.3035 H   0  0  0  0  0  0  0  0  0  0  0  0
    3.0314  -12.6244   -0.2928 H   0  0  0  0  0  0  0  0  0  0  0  0
    3.3958  -14.8340   -1.3463 H   0  0  0  0  0  0  0  0  0  0  0  0
    0.7409   -9.0461   -4.3934 H   0  0  0  0  0  0  0  0  0  0  0  0
    3.2743   -6.2724    1.1134 H   0  0  0  0  0  0  0  0  0  0  0  0
    3.4277   -3.8602    1.6363 H   0  0  0  0  0  0  0  0  0  0  0  0
   -0.4657   -2.0697   -0.2332 H   0  0  0  0  0  0  0  0  0  0  0  0
  1  2  1  0  0  0  0
  1 30  1  0  0  0  0
  1 31  1  0  0  0  0
  1 32  1  0  0  0  0
  2  3  1  0  0  0  0
  2 29  1  0  0  0  0
  3  4  2  0  0  0  0
  3 33  1  0  0  0  0
  4  5  1  0  0  0  0
  4 28  1  0  0  0  0
  5  6  1  0  0  0  0
  6  7  2  0  0  0  0
  6 27  1  0  0  0  0
  7  8  1  0  0  0  0
  7 34  1  0  0  0  0
  8  9  2  0  0  0  0
  8 35  1  0  0  0  0
  9 10  1  0  0  0  0
  9 26  1  0  0  0  0
 10 11  1  0  0  0  0
 10 36  1  0  0  0  0
 11 12  2  0  0  0  0
 11 13  1  0  0  0  0
 13 14  2  0  0  0  0
 13 25  1  0  0  0  0
 14 15  1  0  0  0  0
 14 16  1  0  0  0  0
 15 37  1  0  0  0  0
 16 17  2  0  0  0  0
 16 23  1  0  0  0  0
 17 18  1  0  0  0  0
 17 38  1  0  0  0  0
 18 19  2  0  0  0  0
 18 39  1  0  0  0  0
 19 20  1  0  0  0  0
 19 21  1  0  0  0  0
 21 22  1  0  0  0  0
 21 23  2  0  0  0  0
 23 24  1  0  0  0  0
 24 25  2  0  0  0  0
 25 40  1  0  0  0  0
 26 27  2  0  0  0  0
 26 41  1  0  0  0  0
 27 42  1  0  0  0  0
 28 29  2  0  0  0  0
 28 43  1  0  0  0  0
M  END
$$$$
