
 OpenBabel01122422493D

 44 47  0  0  0  0  0  0  0  0999 V2000
    1.1180    0.0084    0.1106 O   0  0  0  0  0  0  0  0  0  0  0  0
    2.3412   -0.0379    0.0451 C   0  0  0  0  0  0  0  0  0  0  0  0
    3.0350   -1.0736   -0.5276 N   0  0  0  0  0  0  0  0  0  0  0  0
    2.3384   -2.2377   -1.0296 C   0  0  0  0  0  0  0  0  0  0  0  0
    3.3240   -3.2219   -1.5590 C   0  0  0  0  0  0  0  0  0  0  0  0
    4.5435   -3.3454   -1.0103 N   0  0  0  0  0  0  0  0  0  0  0  0
    5.1945   -4.3090   -1.7607 O   0  0  0  0  0  0  0  0  0  0  0  0
    4.3711   -4.7573   -2.7501 C   0  0  0  0  0  0  0  0  0  0  0  0
    4.9222   -5.7271   -3.6800 C   0  0  0  0  0  0  0  0  0  0  0  0
    6.2096   -6.2419   -3.5619 C   0  0  0  0  0  0  0  0  0  0  0  0
    6.6819   -7.0965   -4.5549 C   0  0  0  0  0  0  0  0  0  0  0  0
    5.8570   -7.4181   -5.6258 C   0  0  0  0  0  0  0  0  0  0  0  0
    4.5812   -6.8809   -5.6533 C   0  0  0  0  0  0  0  0  0  0  0  0
    4.0961   -6.0459   -4.7084 N   0  0  0  0  0  0  0  0  0  0  0  0
    3.1622   -4.1104   -2.6447 C   0  0  0  0  0  0  0  0  0  0  0  0
    3.1650    1.0400    0.6273 C   0  0  0  0  0  0  0  0  0  0  0  0
    4.3872    1.4442    0.0857 C   0  0  0  0  0  0  0  0  0  0  0  0
    5.0720    2.5154    0.6609 C   0  0  0  0  0  0  0  0  0  0  0  0
    4.5014    3.1462    1.7565 C   0  0  0  0  0  0  0  0  0  0  0  0
    5.1370    4.2851    2.2384 O   0  0  0  0  0  0  0  0  0  0  0  0
    4.3302    5.2347    2.8312 C   0  0  0  0  0  0  0  0  0  0  0  0
    3.0786    5.5905    2.3124 C   0  0  0  0  0  0  0  0  0  0  0  0
    2.2655    6.4919    2.9968 C   0  0  0  0  0  0  0  0  0  0  0  0
    2.7216    7.0906    4.1714 C   0  0  0  0  0  0  0  0  0  0  0  0
    4.0006    6.8014    4.6467 C   0  0  0  0  0  0  0  0  0  0  0  0
    4.8006    5.8780    3.9722 C   0  0  0  0  0  0  0  0  0  0  0  0
    6.0254    5.6110    4.4498 F   0  0  0  0  0  0  0  0  0  0  0  0
    3.3421    2.7368    2.3300 N   0  0  0  0  0  0  0  0  0  0  0  0
    2.6858    1.7157    1.7411 C   0  0  0  0  0  0  0  0  0  0  0  0
    4.0201   -1.1970   -0.3206 H   0  0  0  0  0  0  0  0  0  0  0  0
    1.6503   -1.9072   -1.8162 H   0  0  0  0  0  0  0  0  0  0  0  0
    1.7507   -2.6779   -0.2177 H   0  0  0  0  0  0  0  0  0  0  0  0
    6.8489   -5.9751   -2.7265 H   0  0  0  0  0  0  0  0  0  0  0  0
    7.6901   -7.4975   -4.4974 H   0  0  0  0  0  0  0  0  0  0  0  0
    6.2009   -8.0692   -6.4218 H   0  0  0  0  0  0  0  0  0  0  0  0
    3.8969   -7.1076   -6.4662 H   0  0  0  0  0  0  0  0  0  0  0  0
    2.3049   -4.2443   -3.2878 H   0  0  0  0  0  0  0  0  0  0  0  0
    4.7901    0.9685   -0.8060 H   0  0  0  0  0  0  0  0  0  0  0  0
    6.0050    2.8766    0.2402 H   0  0  0  0  0  0  0  0  0  0  0  0
    2.7065    5.1318    1.4013 H   0  0  0  0  0  0  0  0  0  0  0  0
    1.2683    6.7092    2.6198 H   0  0  0  0  0  0  0  0  0  0  0  0
    2.0784    7.7790    4.7120 H   0  0  0  0  0  0  0  0  0  0  0  0
    4.3747    7.2768    5.5475 H   0  0  0  0  0  0  0  0  0  0  0  0
    1.7356    1.4538    2.1970 H   0  0  0  0  0  0  0  0  0  0  0  0
  1  2  2  0  0  0  0
  2  3  1  0  0  0  0
  2 16  1  0  0  0  0
  3  4  1  0  0  0  0
  3 30  1  0  0  0  0
  4  5  1  0  0  0  0
  4 31  1  0  0  0  0
  4 32  1  0  0  0  0
  5  6  2  0  0  0  0
  5 15  1  0  0  0  0
  6  7  1  0  0  0  0
  7  8  1  0  0  0  0
  8  9  1  0  0  0  0
  8 15  2  0  0  0  0
  9 10  2  0  0  0  0
  9 14  1  0  0  0  0
 10 11  1  0  0  0  0
 10 33  1  0  0  0  0
 11 12  2  0  0  0  0
 11 34  1  0  0  0  0
 12 13  1  0  0  0  0
 12 35  1  0  0  0  0
 13 14  2  0  0  0  0
 13 36  1  0  0  0  0
 15 37  1  0  0  0  0
 16 17  2  0  0  0  0
 16 29  1  0  0  0  0
 17 18  1  0  0  0  0
 17 38  1  0  0  0  0
 18 19  2  0  0  0  0
 18 39  1  0  0  0  0
 19 20  1  0  0  0  0
 19 28  1  0  0  0  0
 20 21  1  0  0  0  0
 21 22  2  0  0  0  0
 21 26  1  0  0  0  0
 22 23  1  0  0  0  0
 22 40  1  0  0  0  0
 23 24  2  0  0  0  0
 23 41  1  0  0  0  0
 24 25  1  0  0  0  0
 24 42  1  0  0  0  0
 25 26  2  0  0  0  0
 25 43  1  0  0  0  0
 26 27  1  0  0  0  0
 28 29  2  0  0  0  0
 29 44  1  0  0  0  0
M  END
$$$$
