
 OpenBabel01122422463D

 43 45  0  0  0  0  0  0  0  0999 V2000
    1.0027   -0.4428    0.0032 O   0  0  0  0  0  0  0  0  0  0  0  0
    2.1744   -0.0795   -0.0598 C   0  0  0  0  0  0  0  0  0  0  0  0
    2.8273    0.7302    0.8577 N   0  0  0  0  0  0  0  0  0  0  0  0
    2.2825    1.1175    2.1047 C   0  0  0  0  0  0  0  0  0  0  0  0
    1.2330    0.4119    2.6960 C   0  0  0  0  0  0  0  0  0  0  0  0
    0.6599    0.8126    3.9020 C   0  0  0  0  0  0  0  0  0  0  0  0
   -0.4049    0.0983    4.4936 N   0  0  0  0  0  0  0  0  0  0  0  0
   -0.7501   -1.2145    4.1958 C   0  0  0  0  0  0  0  0  0  0  0  0
   -0.1117   -1.9912    3.4996 O   0  0  0  0  0  0  0  0  0  0  0  0
   -2.0278   -1.6997    4.7820 C   0  0  0  0  0  0  0  0  0  0  0  0
   -2.3837   -1.2825    6.0772 C   0  0  0  0  0  0  0  0  0  0  0  0
   -3.6176   -1.6365    6.6154 C   0  0  0  0  0  0  0  0  0  0  0  0
   -4.4918   -2.4151    5.8693 C   0  0  0  0  0  0  0  0  0  0  0  0
   -4.1132   -2.8791    4.6106 C   0  0  0  0  0  0  0  0  0  0  0  0
   -4.9864   -3.6494    3.9485 F   0  0  0  0  0  0  0  0  0  0  0  0
   -2.8776   -2.5545    4.0458 C   0  0  0  0  0  0  0  0  0  0  0  0
   -2.4806   -3.1585    2.7226 C   0  0  0  0  0  0  0  0  0  0  0  0
   -1.5618   -4.1554    2.8656 F   0  0  0  0  0  0  0  0  0  0  0  0
   -3.5181   -3.7426    2.0506 F   0  0  0  0  0  0  0  0  0  0  0  0
    1.1310    1.9715    4.5187 C   0  0  0  0  0  0  0  0  0  0  0  0
    2.2188    2.6603    3.9688 C   0  0  0  0  0  0  0  0  0  0  0  0
    2.8061    2.2239    2.7744 C   0  0  0  0  0  0  0  0  0  0  0  0
    2.9919   -0.4472   -1.2551 C   0  0  0  0  0  0  0  0  0  0  0  0
    2.3360   -0.8099   -2.3717 C   0  0  0  0  0  0  0  0  0  0  0  0
    3.0669   -1.2094   -3.5478 C   0  0  0  0  0  0  0  0  0  0  0  0
    4.4061   -1.2324   -3.5385 C   0  0  0  0  0  0  0  0  0  0  0  0
    5.1376   -0.8527   -2.3010 C   0  0  0  0  0  0  0  0  0  0  0  0
    6.3611   -0.8883   -2.2496 O   0  0  0  0  0  0  0  0  0  0  0  0
    4.3675   -0.4677   -1.2301 N   0  0  0  0  0  0  0  0  0  0  0  0
    3.6680    1.2010    0.5542 H   0  0  0  0  0  0  0  0  0  0  0  0
    0.8418   -0.4665    2.1996 H   0  0  0  0  0  0  0  0  0  0  0  0
   -0.9308    0.5974    5.1966 H   0  0  0  0  0  0  0  0  0  0  0  0
   -1.6963   -0.7031    6.6890 H   0  0  0  0  0  0  0  0  0  0  0  0
   -3.8932   -1.3081    7.6154 H   0  0  0  0  0  0  0  0  0  0  0  0
   -5.4657   -2.6874    6.2648 H   0  0  0  0  0  0  0  0  0  0  0  0
   -2.0827   -2.3998    2.0426 H   0  0  0  0  0  0  0  0  0  0  0  0
    0.6939    2.3294    5.4468 H   0  0  0  0  0  0  0  0  0  0  0  0
    2.6099    3.5403    4.4740 H   0  0  0  0  0  0  0  0  0  0  0  0
    3.6450    2.7810    2.3673 H   0  0  0  0  0  0  0  0  0  0  0  0
    1.2480   -0.8348   -2.4127 H   0  0  0  0  0  0  0  0  0  0  0  0
    2.4996   -1.4954   -4.4281 H   0  0  0  0  0  0  0  0  0  0  0  0
    4.9954   -1.5346   -4.3932 H   0  0  0  0  0  0  0  0  0  0  0  0
    4.8692   -0.2991   -0.3699 H   0  0  0  0  0  0  0  0  0  0  0  0
  1  2  2  0  0  0  0
  2  3  1  0  0  0  0
  2 23  1  0  0  0  0
  3  4  1  0  0  0  0
  3 30  1  0  0  0  0
  4  5  2  0  0  0  0
  4 22  1  0  0  0  0
  5  6  1  0  0  0  0
  5 31  1  0  0  0  0
  6  7  1  0  0  0  0
  6 20  2  0  0  0  0
  7  8  1  0  0  0  0
  7 32  1  0  0  0  0
  8  9  2  0  0  0  0
  8 10  1  0  0  0  0
 10 11  2  0  0  0  0
 10 16  1  0  0  0  0
 11 12  1  0  0  0  0
 11 33  1  0  0  0  0
 12 13  2  0  0  0  0
 12 34  1  0  0  0  0
 13 14  1  0  0  0  0
 13 35  1  0  0  0  0
 14 15  1  0  0  0  0
 14 16  2  0  0  0  0
 16 17  1  0  0  0  0
 17 18  1  0  0  0  0
 17 19  1  0  0  0  0
 17 36  1  0  0  0  0
 20 21  1  0  0  0  0
 20 37  1  0  0  0  0
 21 22  2  0  0  0  0
 21 38  1  0  0  0  0
 22 39  1  0  0  0  0
 23 24  2  0  0  0  0
 23 29  1  0  0  0  0
 24 25  1  0  0  0  0
 24 40  1  0  0  0  0
 25 26  2  0  0  0  0
 25 41  1  0  0  0  0
 26 27  1  0  0  0  0
 26 42  1  0  0  0  0
 27 28  2  0  0  0  0
 27 29  1  0  0  0  0
 29 43  1  0  0  0  0
M  END
$$$$
