
 OpenBabel01122422493D

 45 48  0  0  0  0  0  0  0  0999 V2000
    5.2502   -2.6016   -0.3340 C   0  0  0  0  0  0  0  0  0  0  0  0
    4.5342   -1.2868   -0.1145 C   0  0  0  0  0  0  0  0  0  0  0  0
    5.2727   -0.2198   -0.0983 N   0  0  0  0  0  0  0  0  0  0  0  0
    4.6549    1.0193    0.0881 C   0  0  0  0  0  0  0  0  0  0  0  0
    5.4572    2.1608    0.1644 C   0  0  0  0  0  0  0  0  0  0  0  0
    4.8936    3.4101    0.4360 C   0  0  0  0  0  0  0  0  0  0  0  0
    3.5178    3.5305    0.6185 C   0  0  0  0  0  0  0  0  0  0  0  0
    2.7033    2.4037    0.5012 C   0  0  0  0  0  0  0  0  0  0  0  0
    3.2771    1.1573    0.2333 C   0  0  0  0  0  0  0  0  0  0  0  0
    2.4500   -0.0597    0.1265 C   0  0  0  0  0  0  0  0  0  0  0  0
    1.2236    0.0559    0.1768 O   0  0  0  0  0  0  0  0  0  0  0  0
    3.1558   -1.2681    0.0058 N   0  0  0  0  0  0  0  0  0  0  0  0
    2.3928   -2.4679    0.0180 C   0  0  0  0  0  0  0  0  0  0  0  0
    1.4290   -2.6847   -0.9646 C   0  0  0  0  0  0  0  0  0  0  0  0
    0.5963   -3.8033   -0.8989 C   0  0  0  0  0  0  0  0  0  0  0  0
    0.6906   -4.7241    0.1598 C   0  0  0  0  0  0  0  0  0  0  0  0
   -0.2624   -5.8418    0.2850 C   0  0  0  0  0  0  0  0  0  0  0  0
    0.0776   -7.0589    0.8718 C   0  0  0  0  0  0  0  0  0  0  0  0
   -0.7561   -8.1185    1.0148 N   0  0  0  0  0  0  0  0  0  0  0  0
   -2.0192   -7.9767    0.5751 C   0  0  0  0  0  0  0  0  0  0  0  0
   -2.7989   -9.1227    0.7429 N   0  0  0  0  0  0  0  0  0  0  0  0
   -2.4889   -6.7977    0.0049 C   0  0  0  0  0  0  0  0  0  0  0  0
   -3.7334   -6.5157   -0.4823 O   0  0  0  0  0  0  0  0  0  0  0  0
   -4.8405   -7.1597    0.1205 C   0  0  0  0  0  0  0  0  0  0  0  0
   -4.6142   -7.3983    1.4393 F   0  0  0  0  0  0  0  0  0  0  0  0
   -5.8737   -6.2780    0.0783 F   0  0  0  0  0  0  0  0  0  0  0  0
   -1.5855   -5.7407   -0.1560 C   0  0  0  0  0  0  0  0  0  0  0  0
    1.7027   -4.5133    1.1133 C   0  0  0  0  0  0  0  0  0  0  0  0
    2.5467   -3.4015    1.0461 C   0  0  0  0  0  0  0  0  0  0  0  0
    6.2996   -2.4174   -0.5863 H   0  0  0  0  0  0  0  0  0  0  0  0
    4.7925   -3.1554   -1.1583 H   0  0  0  0  0  0  0  0  0  0  0  0
    5.2314   -3.2031    0.5775 H   0  0  0  0  0  0  0  0  0  0  0  0
    6.5315    2.0677    0.0253 H   0  0  0  0  0  0  0  0  0  0  0  0
    5.5354    4.2851    0.5180 H   0  0  0  0  0  0  0  0  0  0  0  0
    3.0818    4.4988    0.8540 H   0  0  0  0  0  0  0  0  0  0  0  0
    1.6261    2.4985    0.6387 H   0  0  0  0  0  0  0  0  0  0  0  0
    1.3101   -1.9826   -1.7872 H   0  0  0  0  0  0  0  0  0  0  0  0
   -0.1431   -3.9310   -1.6869 H   0  0  0  0  0  0  0  0  0  0  0  0
    1.0763   -7.2396    1.2594 H   0  0  0  0  0  0  0  0  0  0  0  0
   -2.1734   -9.7923    1.1902 H   0  0  0  0  0  0  0  0  0  0  0  0
   -3.5665   -8.9157    1.3775 H   0  0  0  0  0  0  0  0  0  0  0  0
   -5.1303   -8.0746   -0.4044 H   0  0  0  0  0  0  0  0  0  0  0  0
   -1.9526   -4.8194   -0.6047 H   0  0  0  0  0  0  0  0  0  0  0  0
    1.8243   -5.1899    1.9564 H   0  0  0  0  0  0  0  0  0  0  0  0
    3.2744   -3.2502    1.8385 H   0  0  0  0  0  0  0  0  0  0  0  0
  1  2  1  0  0  0  0
  1 30  1  0  0  0  0
  1 31  1  0  0  0  0
  1 32  1  0  0  0  0
  2  3  2  0  0  0  0
  2 12  1  0  0  0  0
  3  4  1  0  0  0  0
  4  5  2  0  0  0  0
  4  9  1  0  0  0  0
  5  6  1  0  0  0  0
  5 33  1  0  0  0  0
  6  7  2  0  0  0  0
  6 34  1  0  0  0  0
  7  8  1  0  0  0  0
  7 35  1  0  0  0  0
  8  9  2  0  0  0  0
  8 36  1  0  0  0  0
  9 10  1  0  0  0  0
 10 11  2  0  0  0  0
 10 12  1  0  0  0  0
 12 13  1  0  0  0  0
 13 14  2  0  0  0  0
 13 29  1  0  0  0  0
 14 15  1  0  0  0  0
 14 37  1  0  0  0  0
 15 16  2  0  0  0  0
 15 38  1  0  0  0  0
 16 17  1  0  0  0  0
 16 28  1  0  0  0  0
 17 18  2  0  0  0  0
 17 27  1  0  0  0  0
 18 19  1  0  0  0  0
 18 39  1  0  0  0  0
 19 20  2  0  0  0  0
 20 21  1  0  0  0  0
 20 22  1  0  0  0  0
 21 40  1  0  0  0  0
 21 41  1  0  0  0  0
 22 23  1  0  0  0  0
 22 27  2  0  0  0  0
 23 24  1  0  0  0  0
 24 25  1  0  0  0  0
 24 26  1  0  0  0  0
 24 42  1  0  0  0  0
 27 43  1  0  0  0  0
 28 29  2  0  0  0  0
 28 44  1  0  0  0  0
 29 45  1  0  0  0  0
M  END
$$$$
