
 OpenBabel01122422493D

 49 52  0  0  0  0  0  0  0  0999 V2000
    4.0478    0.1762   -1.2172 O   0  0  0  0  0  0  0  0  0  0  0  0
    3.3667    1.1301   -0.8340 C   0  0  0  0  0  0  0  0  0  0  0  0
    3.0349    1.2505    0.6571 C   0  0  0  0  0  0  0  0  0  0  0  0
    2.0025    2.2390    1.0295 N   0  0  0  0  0  0  0  0  0  0  0  0
    0.6070    1.9368    0.9619 C   0  0  0  0  0  0  0  0  0  0  0  0
   -0.2301    2.8134    1.1799 O   0  0  0  0  0  0  0  0  0  0  0  0
    0.1631    0.6004    0.6131 C   0  0  0  0  0  0  0  0  0  0  0  0
    0.5113   -0.1906   -0.4733 C   0  0  0  0  0  0  0  0  0  0  0  0
   -0.3156   -1.3131   -0.4307 C   0  0  0  0  0  0  0  0  0  0  0  0
   -1.1920   -1.2398    0.5579 N   0  0  0  0  0  0  0  0  0  0  0  0
   -0.9097   -0.0736    1.2078 N   0  0  0  0  0  0  0  0  0  0  0  0
   -1.7066    0.2476    2.3463 C   0  0  0  0  0  0  0  0  0  0  0  0
   -1.2582    1.0730    3.3724 C   0  0  0  0  0  0  0  0  0  0  0  0
   -2.1242    1.3388    4.4255 C   0  0  0  0  0  0  0  0  0  0  0  0
   -3.3732    0.8301    4.5204 N   0  0  0  0  0  0  0  0  0  0  0  0
   -3.7770    0.0148    3.5274 C   0  0  0  0  0  0  0  0  0  0  0  0
   -2.9850   -0.3198    2.4471 C   0  0  0  0  0  0  0  0  0  0  0  0
    2.4844    3.4247    1.7122 C   0  0  0  0  0  0  0  0  0  0  0  0
    1.7634    4.0151    2.7612 C   0  0  0  0  0  0  0  0  0  0  0  0
    2.2831    5.0917    3.4898 C   0  0  0  0  0  0  0  0  0  0  0  0
    3.5270    5.6210    3.1675 C   0  0  0  0  0  0  0  0  0  0  0  0
    4.2519    5.0688    2.1182 C   0  0  0  0  0  0  0  0  0  0  0  0
    3.7380    3.9809    1.4002 C   0  0  0  0  0  0  0  0  0  0  0  0
    2.9131    2.1434   -1.6578 N   0  0  0  0  0  0  0  0  0  0  0  0
    3.1496    2.1360   -3.0509 C   0  0  0  0  0  0  0  0  0  0  0  0
    3.0037    0.9736   -3.8187 C   0  0  0  0  0  0  0  0  0  0  0  0
    3.3382    0.9736   -5.1744 C   0  0  0  0  0  0  0  0  0  0  0  0
    3.8452    2.1297   -5.7624 C   0  0  0  0  0  0  0  0  0  0  0  0
    3.9565    3.2991   -5.0107 C   0  0  0  0  0  0  0  0  0  0  0  0
    3.5749    3.3136   -3.6663 C   0  0  0  0  0  0  0  0  0  0  0  0
    3.9724    1.4507    1.1853 H   0  0  0  0  0  0  0  0  0  0  0  0
    2.7148    0.2632    1.0076 H   0  0  0  0  0  0  0  0  0  0  0  0
    1.2288    0.0091   -1.2505 H   0  0  0  0  0  0  0  0  0  0  0  0
   -0.3424   -2.1630   -1.1023 H   0  0  0  0  0  0  0  0  0  0  0  0
   -0.2633    1.4928    3.4054 H   0  0  0  0  0  0  0  0  0  0  0  0
   -1.8264    1.9794    5.2466 H   0  0  0  0  0  0  0  0  0  0  0  0
   -4.7823   -0.3798    3.6243 H   0  0  0  0  0  0  0  0  0  0  0  0
   -3.3845   -0.9745    1.6734 H   0  0  0  0  0  0  0  0  0  0  0  0
    0.8020    3.6300    3.0818 H   0  0  0  0  0  0  0  0  0  0  0  0
    1.7131    5.5115    4.3166 H   0  0  0  0  0  0  0  0  0  0  0  0
    3.9325    6.4537    3.7377 H   0  0  0  0  0  0  0  0  0  0  0  0
    5.2236    5.4825    1.8582 H   0  0  0  0  0  0  0  0  0  0  0  0
    4.3495    3.5954    0.5888 H   0  0  0  0  0  0  0  0  0  0  0  0
    2.7189    3.0379   -1.2194 H   0  0  0  0  0  0  0  0  0  0  0  0
    2.6230    0.0560   -3.3774 H   0  0  0  0  0  0  0  0  0  0  0  0
    3.2264    0.0655   -5.7622 H   0  0  0  0  0  0  0  0  0  0  0  0
    4.1567    2.1168   -6.8039 H   0  0  0  0  0  0  0  0  0  0  0  0
    4.3651    4.1960   -5.4680 H   0  0  0  0  0  0  0  0  0  0  0  0
    3.6911    4.2302   -3.0949 H   0  0  0  0  0  0  0  0  0  0  0  0
  1  2  2  0  0  0  0
  2  3  1  0  0  0  0
  2 24  1  0  0  0  0
  3  4  1  0  0  0  0
  3 31  1  0  0  0  0
  3 32  1  0  0  0  0
  4  5  1  0  0  0  0
  4 18  1  0  0  0  0
  5  6  2  0  0  0  0
  5  7  1  0  0  0  0
  7  8  2  0  0  0  0
  7 11  1  0  0  0  0
  8  9  1  0  0  0  0
  8 33  1  0  0  0  0
  9 10  2  0  0  0  0
  9 34  1  0  0  0  0
 10 11  1  0  0  0  0
 11 12  1  0  0  0  0
 12 13  2  0  0  0  0
 12 17  1  0  0  0  0
 13 14  1  0  0  0  0
 13 35  1  0  0  0  0
 14 15  2  0  0  0  0
 14 36  1  0  0  0  0
 15 16  1  0  0  0  0
 16 17  2  0  0  0  0
 16 37  1  0  0  0  0
 17 38  1  0  0  0  0
 18 19  2  0  0  0  0
 18 23  1  0  0  0  0
 19 20  1  0  0  0  0
 19 39  1  0  0  0  0
 20 21  2  0  0  0  0
 20 40  1  0  0  0  0
 21 22  1  0  0  0  0
 21 41  1  0  0  0  0
 22 23  2  0  0  0  0
 22 42  1  0  0  0  0
 23 43  1  0  0  0  0
 24 25  1  0  0  0  0
 24 44  1  0  0  0  0
 25 26  2  0  0  0  0
 25 30  1  0  0  0  0
 26 27  1  0  0  0  0
 26 45  1  0  0  0  0
 27 28  2  0  0  0  0
 27 46  1  0  0  0  0
 28 29  1  0  0  0  0
 28 47  1  0  0  0  0
 29 30  2  0  0  0  0
 29 48  1  0  0  0  0
 30 49  1  0  0  0  0
M  END
$$$$
