
 OpenBabel01122422493D

 45 48  0  0  0  0  0  0  0  0999 V2000
    1.1675   -1.9332   -0.2615 C   0  0  0  0  0  0  0  0  0  0  0  0
    2.6568   -2.0934   -0.3324 C   0  0  0  0  0  0  0  0  0  0  0  0
    3.1830   -3.0515   -1.0192 N   0  0  0  0  0  0  0  0  0  0  0  0
    4.5830   -3.1380   -1.0505 C   0  0  0  0  0  0  0  0  0  0  0  0
    5.1776   -4.1445   -1.7996 C   0  0  0  0  0  0  0  0  0  0  0  0
    6.5647   -4.2284   -1.8536 C   0  0  0  0  0  0  0  0  0  0  0  0
    7.3227   -3.3030   -1.1370 C   0  0  0  0  0  0  0  0  0  0  0  0
    8.8102   -3.3945   -1.2207 C   0  0  0  0  0  0  0  0  0  0  0  0
    9.2988   -4.2544   -1.9480 O   0  0  0  0  0  0  0  0  0  0  0  0
    9.5055   -2.4955   -0.4310 N   0  0  0  0  0  0  0  0  0  0  0  0
   10.9090   -2.3703   -0.3773 C   0  0  0  0  0  0  0  0  0  0  0  0
   11.7581   -2.9778   -1.3013 C   0  0  0  0  0  0  0  0  0  0  0  0
   13.1416   -2.8606   -1.1880 C   0  0  0  0  0  0  0  0  0  0  0  0
   13.7136   -2.1288   -0.1462 C   0  0  0  0  0  0  0  0  0  0  0  0
   15.0899   -2.1236   -0.1991 O   0  0  0  0  0  0  0  0  0  0  0  0
   15.8308   -2.1148    0.9540 C   0  0  0  0  0  0  0  0  0  0  0  0
   15.4508   -2.7469    2.1384 C   0  0  0  0  0  0  0  0  0  0  0  0
   16.1674   -2.4954    3.3072 C   0  0  0  0  0  0  0  0  0  0  0  0
   17.3112   -1.6976    3.2676 C   0  0  0  0  0  0  0  0  0  0  0  0
   17.7685   -1.1891    2.0527 C   0  0  0  0  0  0  0  0  0  0  0  0
   17.0291   -1.4025    0.8923 C   0  0  0  0  0  0  0  0  0  0  0  0
   12.8722   -1.4451    0.7484 C   0  0  0  0  0  0  0  0  0  0  0  0
   13.3411   -0.5811    1.7952 C   0  0  0  0  0  0  0  0  0  0  0  0
   13.6446    0.1085    2.6792 N   0  0  0  0  0  0  0  0  0  0  0  0
   11.4728   -1.5895    0.6348 C   0  0  0  0  0  0  0  0  0  0  0  0
    6.7953   -2.3096   -0.3773 N   0  0  0  0  0  0  0  0  0  0  0  0
    5.4329   -2.2590   -0.3728 C   0  0  0  0  0  0  0  0  0  0  0  0
    4.7739   -1.1788    0.3962 C   0  0  0  0  0  0  0  0  0  0  0  0
    5.3948   -0.3297    1.0317 O   0  0  0  0  0  0  0  0  0  0  0  0
    3.3967   -1.1702    0.3585 N   0  0  0  0  0  0  0  0  0  0  0  0
    0.6696   -2.7489   -0.7936 H   0  0  0  0  0  0  0  0  0  0  0  0
    0.8825   -0.9818   -0.7188 H   0  0  0  0  0  0  0  0  0  0  0  0
    0.8459   -1.9378    0.7833 H   0  0  0  0  0  0  0  0  0  0  0  0
    4.5651   -4.8549   -2.3477 H   0  0  0  0  0  0  0  0  0  0  0  0
    7.0455   -4.9991   -2.4500 H   0  0  0  0  0  0  0  0  0  0  0  0
    8.9365   -1.9236    0.1893 H   0  0  0  0  0  0  0  0  0  0  0  0
   11.3781   -3.5460   -2.1441 H   0  0  0  0  0  0  0  0  0  0  0  0
   13.7753   -3.3494   -1.9255 H   0  0  0  0  0  0  0  0  0  0  0  0
   14.5638   -3.3716    2.1836 H   0  0  0  0  0  0  0  0  0  0  0  0
   15.8107   -2.8891    4.2551 H   0  0  0  0  0  0  0  0  0  0  0  0
   17.8433   -1.4677    4.1864 H   0  0  0  0  0  0  0  0  0  0  0  0
   18.6778   -0.5960    2.0153 H   0  0  0  0  0  0  0  0  0  0  0  0
   17.3644   -0.9802   -0.0514 H   0  0  0  0  0  0  0  0  0  0  0  0
   10.8286   -1.0918    1.3592 H   0  0  0  0  0  0  0  0  0  0  0  0
    2.9457   -0.4310    0.8787 H   0  0  0  0  0  0  0  0  0  0  0  0
  1  2  1  0  0  0  0
  1 31  1  0  0  0  0
  1 32  1  0  0  0  0
  1 33  1  0  0  0  0
  2  3  2  0  0  0  0
  2 30  1  0  0  0  0
  3  4  1  0  0  0  0
  4  5  2  0  0  0  0
  4 27  1  0  0  0  0
  5  6  1  0  0  0  0
  5 34  1  0  0  0  0
  6  7  2  0  0  0  0
  6 35  1  0  0  0  0
  7  8  1  0  0  0  0
  7 26  1  0  0  0  0
  8  9  2  0  0  0  0
  8 10  1  0  0  0  0
 10 11  1  0  0  0  0
 10 36  1  0  0  0  0
 11 12  2  0  0  0  0
 11 25  1  0  0  0  0
 12 13  1  0  0  0  0
 12 37  1  0  0  0  0
 13 14  2  0  0  0  0
 13 38  1  0  0  0  0
 14 15  1  0  0  0  0
 14 22  1  0  0  0  0
 15 16  1  0  0  0  0
 16 17  2  0  0  0  0
 16 21  1  0  0  0  0
 17 18  1  0  0  0  0
 17 39  1  0  0  0  0
 18 19  2  0  0  0  0
 18 40  1  0  0  0  0
 19 20  1  0  0  0  0
 19 41  1  0  0  0  0
 20 21  2  0  0  0  0
 20 42  1  0  0  0  0
 21 43  1  0  0  0  0
 22 23  1  0  0  0  0
 22 25  2  0  0  0  0
 23 24  3  0  0  0  0
 25 44  1  0  0  0  0
 26 27  2  0  0  0  0
 27 28  1  0  0  0  0
 28 29  2  0  0  0  0
 28 30  1  0  0  0  0
 30 45  1  0  0  0  0
M  END
$$$$
