
 OpenBabel01122422493D

 48 51  0  0  1  0  0  0  0  0999 V2000
    1.0261    0.1896   -0.0022 C   0  0  0  0  0  0  0  0  0  0  0  0
    2.5544    0.1146    0.0617 C   0  0  1  0  0  0  0  0  0  0  0  0
    3.0346    0.5433    1.3679 N   0  0  0  0  0  0  0  0  0  0  0  0
    3.3632    1.8506    1.6319 C   0  0  0  0  0  0  0  0  0  0  0  0
    3.3415    2.7455    0.7965 O   0  0  0  0  0  0  0  0  0  0  0  0
    3.7804    2.1572    3.0277 C   0  0  0  0  0  0  0  0  0  0  0  0
    4.6813    3.2122    3.2419 C   0  0  0  0  0  0  0  0  0  0  0  0
    5.0465    3.5846    4.5406 C   0  0  0  0  0  0  0  0  0  0  0  0
    4.4954    2.9086    5.6259 C   0  0  0  0  0  0  0  0  0  0  0  0
    4.8083    3.2971    6.9303 N   0  0  0  0  0  0  0  0  0  0  0  0
    4.2664    2.7077    8.0361 C   0  0  0  0  0  0  0  0  0  0  0  0
    4.5418    3.0921    9.1679 O   0  0  0  0  0  0  0  0  0  0  0  0
    3.4030    1.6729    7.8149 N   0  0  0  0  0  0  0  0  0  0  0  0
    3.0307    1.1759    6.5899 C   0  0  0  0  0  0  0  0  0  0  0  0
    2.2693    0.2263    6.4681 O   0  0  0  0  0  0  0  0  0  0  0  0
    3.6047    1.8543    5.4133 C   0  0  0  0  0  0  0  0  0  0  0  0
    3.2430    1.4695    4.1205 C   0  0  0  0  0  0  0  0  0  0  0  0
    3.0579   -1.2845   -0.2356 C   0  0  0  0  0  0  0  0  0  0  0  0
    3.9256   -1.5139   -1.3107 C   0  0  0  0  0  0  0  0  0  0  0  0
    4.3865   -2.8081   -1.6011 C   0  0  0  0  0  0  0  0  0  0  0  0
    4.0130   -3.9132   -0.8172 C   0  0  0  0  0  0  0  0  0  0  0  0
    4.4737   -5.2957   -1.1056 C   0  0  0  0  0  0  0  0  0  0  0  0
    5.7116   -5.5681   -1.7166 C   0  0  0  0  0  0  0  0  0  0  0  0
    6.1475   -6.8827   -1.9281 C   0  0  0  0  0  0  0  0  0  0  0  0
    5.3598   -7.9576   -1.5260 C   0  0  0  0  0  0  0  0  0  0  0  0
    4.1248   -7.7212   -0.9387 C   0  0  0  0  0  0  0  0  0  0  0  0
    3.6850   -6.4082   -0.7477 C   0  0  0  0  0  0  0  0  0  0  0  0
    3.1694   -3.6544    0.2774 C   0  0  0  0  0  0  0  0  0  0  0  0
    2.6863   -2.3741    0.5585 C   0  0  0  0  0  0  0  0  0  0  0  0
    0.6830    1.2227    0.1234 H   0  0  0  0  0  0  0  0  0  0  0  0
    0.5528   -0.4041    0.7877 H   0  0  0  0  0  0  0  0  0  0  0  0
    0.6538   -0.1769   -0.9657 H   0  0  0  0  0  0  0  0  0  0  0  0
    2.9495    0.8056   -0.6918 H   0  0  0  0  0  0  0  0  0  0  0  0
    3.1596   -0.1667    2.0742 H   0  0  0  0  0  0  0  0  0  0  0  0
    5.0917    3.7546    2.3911 H   0  0  0  0  0  0  0  0  0  0  0  0
    5.7387    4.4104    4.6827 H   0  0  0  0  0  0  0  0  0  0  0  0
    5.4386    4.0688    7.1064 H   0  0  0  0  0  0  0  0  0  0  0  0
    3.0070    1.2315    8.6309 H   0  0  0  0  0  0  0  0  0  0  0  0
    2.5139    0.6746    3.9865 H   0  0  0  0  0  0  0  0  0  0  0  0
    4.2475   -0.6872   -1.9408 H   0  0  0  0  0  0  0  0  0  0  0  0
    5.0367   -2.9323   -2.4649 H   0  0  0  0  0  0  0  0  0  0  0  0
    6.3711   -4.7595   -2.0211 H   0  0  0  0  0  0  0  0  0  0  0  0
    7.1107   -7.0654   -2.3971 H   0  0  0  0  0  0  0  0  0  0  0  0
    5.7063   -8.9771   -1.6714 H   0  0  0  0  0  0  0  0  0  0  0  0
    3.4976   -8.5506   -0.6228 H   0  0  0  0  0  0  0  0  0  0  0  0
    2.7002   -6.2690   -0.3075 H   0  0  0  0  0  0  0  0  0  0  0  0
    2.8723   -4.4567    0.9490 H   0  0  0  0  0  0  0  0  0  0  0  0
    2.0200   -2.2443    1.4066 H   0  0  0  0  0  0  0  0  0  0  0  0
  1  2  1  0  0  0  0
  1 30  1  0  0  0  0
  1 31  1  0  0  0  0
  1 32  1  0  0  0  0
  2  3  1  0  0  0  0
  2 18  1  0  0  0  0
  2 33  1  6  0  0  0
  3  4  1  0  0  0  0
  3 34  1  0  0  0  0
  4  5  2  0  0  0  0
  4  6  1  0  0  0  0
  6  7  2  0  0  0  0
  6 17  1  0  0  0  0
  7  8  1  0  0  0  0
  7 35  1  0  0  0  0
  8  9  2  0  0  0  0
  8 36  1  0  0  0  0
  9 10  1  0  0  0  0
  9 16  1  0  0  0  0
 10 11  1  0  0  0  0
 10 37  1  0  0  0  0
 11 12  2  0  0  0  0
 11 13  1  0  0  0  0
 13 14  1  0  0  0  0
 13 38  1  0  0  0  0
 14 15  2  0  0  0  0
 14 16  1  0  0  0  0
 16 17  2  0  0  0  0
 17 39  1  0  0  0  0
 18 19  2  0  0  0  0
 18 29  1  0  0  0  0
 19 20  1  0  0  0  0
 19 40  1  0  0  0  0
 20 21  2  0  0  0  0
 20 41  1  0  0  0  0
 21 22  1  0  0  0  0
 21 28  1  0  0  0  0
 22 23  2  0  0  0  0
 22 27  1  0  0  0  0
 23 24  1  0  0  0  0
 23 42  1  0  0  0  0
 24 25  2  0  0  0  0
 24 43  1  0  0  0  0
 25 26  1  0  0  0  0
 25 44  1  0  0  0  0
 26 27  2  0  0  0  0
 26 45  1  0  0  0  0
 27 46  1  0  0  0  0
 28 29  2  0  0  0  0
 28 47  1  0  0  0  0
 29 48  1  0  0  0  0
M  END
$$$$
