
 OpenBabel01122422463D

 43 46  0  0  0  0  0  0  0  0999 V2000
    1.6873    0.0769    1.9488 N   0  0  0  0  0  0  0  0  0  0  0  0
    2.6761    0.0106    1.3385 C   0  0  0  0  0  0  0  0  0  0  0  0
    3.9034   -0.0094    0.5981 C   0  0  0  0  0  0  0  0  0  0  0  0
    4.6509    1.1741    0.4809 C   0  0  0  0  0  0  0  0  0  0  0  0
    5.8533    1.2208   -0.2506 C   0  0  0  0  0  0  0  0  0  0  0  0
    6.5750    2.4994   -0.4717 C   0  0  0  0  0  0  0  0  0  0  0  0
    6.5441    3.5523    0.4661 C   0  0  0  0  0  0  0  0  0  0  0  0
    7.1243    4.8065    0.1970 C   0  0  0  0  0  0  0  0  0  0  0  0
    6.9621    5.9212    1.1398 C   0  0  0  0  0  0  0  0  0  0  0  0
    5.8111    6.0528    1.8229 N   0  0  0  0  0  0  0  0  0  0  0  0
    5.9082    7.2355    2.4744 N   0  0  0  0  0  0  0  0  0  0  0  0
    4.8362    7.7840    3.2428 C   0  0  0  0  0  0  0  0  0  0  0  0
    3.6601    7.0513    3.3920 C   0  0  0  0  0  0  0  0  0  0  0  0
    2.6106    7.6169    4.1130 C   0  0  0  0  0  0  0  0  0  0  0  0
    2.7609    8.8870    4.6577 C   0  0  0  0  0  0  0  0  0  0  0  0
    3.9651    9.5440    4.4685 C   0  0  0  0  0  0  0  0  0  0  0  0
    5.0060    9.0262    3.7787 N   0  0  0  0  0  0  0  0  0  0  0  0
    7.1316    7.8300    2.2635 C   0  0  0  0  0  0  0  0  0  0  0  0
    7.8507    7.0055    1.4194 C   0  0  0  0  0  0  0  0  0  0  0  0
    9.2084    7.2162    0.9507 C   0  0  0  0  0  0  0  0  0  0  0  0
    9.9720    6.3150    0.6388 O   0  0  0  0  0  0  0  0  0  0  0  0
    9.5784    8.5190    0.8505 O   0  0  0  0  0  0  0  0  0  0  0  0
    7.7764    4.9971   -1.0260 C   0  0  0  0  0  0  0  0  0  0  0  0
    7.8658    3.9610   -1.9487 C   0  0  0  0  0  0  0  0  0  0  0  0
    7.2620    2.7348   -1.6775 C   0  0  0  0  0  0  0  0  0  0  0  0
    6.2981    0.0154   -0.8271 C   0  0  0  0  0  0  0  0  0  0  0  0
    5.5552   -1.1660   -0.7315 C   0  0  0  0  0  0  0  0  0  0  0  0
    4.3554   -1.1703   -0.0287 C   0  0  0  0  0  0  0  0  0  0  0  0
    3.6111   -2.3134    0.0391 O   0  0  0  0  0  0  0  0  0  0  0  0
    4.2590    2.0797    0.9427 H   0  0  0  0  0  0  0  0  0  0  0  0
    6.0435    3.4140    1.4232 H   0  0  0  0  0  0  0  0  0  0  0  0
    3.5472    6.0610    2.9601 H   0  0  0  0  0  0  0  0  0  0  0  0
    1.6807    7.0697    4.2441 H   0  0  0  0  0  0  0  0  0  0  0  0
    1.9569    9.3536    5.2167 H   0  0  0  0  0  0  0  0  0  0  0  0
    4.1267   10.5378    4.8774 H   0  0  0  0  0  0  0  0  0  0  0  0
    7.3699    8.7634    2.7555 H   0  0  0  0  0  0  0  0  0  0  0  0
    8.8516    9.1368    1.0485 H   0  0  0  0  0  0  0  0  0  0  0  0
    8.2135    5.9551   -1.2916 H   0  0  0  0  0  0  0  0  0  0  0  0
    8.3828    4.1176   -2.8918 H   0  0  0  0  0  0  0  0  0  0  0  0
    7.3085    1.9722   -2.4514 H   0  0  0  0  0  0  0  0  0  0  0  0
    7.2356   -0.0182   -1.3797 H   0  0  0  0  0  0  0  0  0  0  0  0
    5.9279   -2.0618   -1.2197 H   0  0  0  0  0  0  0  0  0  0  0  0
    4.0136   -2.9966   -0.5232 H   0  0  0  0  0  0  0  0  0  0  0  0
  1  2  3  0  0  0  0
  2  3  1  0  0  0  0
  3  4  2  0  0  0  0
  3 28  1  0  0  0  0
  4  5  1  0  0  0  0
  4 30  1  0  0  0  0
  5  6  1  0  0  0  0
  5 26  2  0  0  0  0
  6  7  2  0  0  0  0
  6 25  1  0  0  0  0
  7  8  1  0  0  0  0
  7 31  1  0  0  0  0
  8  9  1  0  0  0  0
  8 23  2  0  0  0  0
  9 10  2  0  0  0  0
  9 19  1  0  0  0  0
 10 11  1  0  0  0  0
 11 12  1  0  0  0  0
 11 18  1  0  0  0  0
 12 13  2  0  0  0  0
 12 17  1  0  0  0  0
 13 14  1  0  0  0  0
 13 32  1  0  0  0  0
 14 15  2  0  0  0  0
 14 33  1  0  0  0  0
 15 16  1  0  0  0  0
 15 34  1  0  0  0  0
 16 17  2  0  0  0  0
 16 35  1  0  0  0  0
 18 19  2  0  0  0  0
 18 36  1  0  0  0  0
 19 20  1  0  0  0  0
 20 21  2  0  0  0  0
 20 22  1  0  0  0  0
 22 37  1  0  0  0  0
 23 24  1  0  0  0  0
 23 38  1  0  0  0  0
 24 25  2  0  0  0  0
 24 39  1  0  0  0  0
 25 40  1  0  0  0  0
 26 27  1  0  0  0  0
 26 41  1  0  0  0  0
 27 28  2  0  0  0  0
 27 42  1  0  0  0  0
 28 29  1  0  0  0  0
 29 43  1  0  0  0  0
M  END
$$$$
