
 OpenBabel01122422493D

 44 47  0  0  0  0  0  0  0  0999 V2000
    5.0595    3.1275    3.3752 C   0  0  0  0  0  0  0  0  0  0  0  0
    4.5270    2.2745    2.3644 O   0  0  0  0  0  0  0  0  0  0  0  0
    5.1782    2.3527    1.1726 C   0  0  0  0  0  0  0  0  0  0  0  0
    6.1430    3.0666    0.9434 O   0  0  0  0  0  0  0  0  0  0  0  0
    4.5556    1.4018    0.1966 C   0  0  0  0  0  0  0  0  0  0  0  0
    3.2113    1.2061    0.3645 N   0  0  0  0  0  0  0  0  0  0  0  0
    2.5940    0.3908   -0.5060 C   0  0  0  0  0  0  0  0  0  0  0  0
    3.2443   -0.2414   -1.5471 C   0  0  0  0  0  0  0  0  0  0  0  0
    4.6178   -0.0381   -1.7161 C   0  0  0  0  0  0  0  0  0  0  0  0
    5.2862   -0.6621   -2.7812 C   0  0  0  0  0  0  0  0  0  0  0  0
    6.6539   -0.4862   -2.9999 C   0  0  0  0  0  0  0  0  0  0  0  0
    7.3386   -1.0475   -4.1019 N   0  0  0  0  0  0  0  0  0  0  0  0
    6.7419   -1.5667   -5.2391 C   0  0  0  0  0  0  0  0  0  0  0  0
    5.5349   -1.5962   -5.4566 O   0  0  0  0  0  0  0  0  0  0  0  0
    7.6489   -2.0873   -6.2463 C   0  0  0  0  0  0  0  0  0  0  0  0
    9.0269   -2.1352   -6.2887 C   0  0  0  0  0  0  0  0  0  0  0  0
    9.3873   -2.7644   -7.4663 N   0  0  0  0  0  0  0  0  0  0  0  0
   10.6812   -3.0953   -7.9440 C   0  0  0  0  0  0  0  0  0  0  0  0
   10.8106   -3.7200   -9.1986 C   0  0  0  0  0  0  0  0  0  0  0  0
   12.0722   -4.0628   -9.6917 C   0  0  0  0  0  0  0  0  0  0  0  0
   13.2130   -3.7900   -8.9402 C   0  0  0  0  0  0  0  0  0  0  0  0
   13.0920   -3.1763   -7.6954 C   0  0  0  0  0  0  0  0  0  0  0  0
   11.8342   -2.8312   -7.2035 C   0  0  0  0  0  0  0  0  0  0  0  0
   11.7905   -2.2514   -5.9966 F   0  0  0  0  0  0  0  0  0  0  0  0
    8.2880   -3.0805   -8.2019 N   0  0  0  0  0  0  0  0  0  0  0  0
    7.2570   -2.6825   -7.4591 C   0  0  0  0  0  0  0  0  0  0  0  0
    7.3793    0.2818   -2.0919 C   0  0  0  0  0  0  0  0  0  0  0  0
    6.7266    0.9182   -1.0277 C   0  0  0  0  0  0  0  0  0  0  0  0
    5.3260    0.7923   -0.8248 C   0  0  0  0  0  0  0  0  0  0  0  0
    4.4178    3.0504    4.2567 H   0  0  0  0  0  0  0  0  0  0  0  0
    5.0656    4.1700    3.0417 H   0  0  0  0  0  0  0  0  0  0  0  0
    6.0679    2.8022    3.6495 H   0  0  0  0  0  0  0  0  0  0  0  0
    1.5281    0.2548   -0.3477 H   0  0  0  0  0  0  0  0  0  0  0  0
    2.6806   -0.8819   -2.2199 H   0  0  0  0  0  0  0  0  0  0  0  0
    4.7042   -1.3049   -3.4362 H   0  0  0  0  0  0  0  0  0  0  0  0
    8.3457   -0.9675   -4.0966 H   0  0  0  0  0  0  0  0  0  0  0  0
    9.7669   -1.7862   -5.5892 H   0  0  0  0  0  0  0  0  0  0  0  0
    9.9349   -3.9477   -9.8064 H   0  0  0  0  0  0  0  0  0  0  0  0
   12.1604   -4.5441  -10.6632 H   0  0  0  0  0  0  0  0  0  0  0  0
   14.1946   -4.0573   -9.3230 H   0  0  0  0  0  0  0  0  0  0  0  0
   13.9730   -2.9638   -7.0972 H   0  0  0  0  0  0  0  0  0  0  0  0
    6.2496   -2.8425   -7.8274 H   0  0  0  0  0  0  0  0  0  0  0  0
    8.4498    0.4333   -2.2072 H   0  0  0  0  0  0  0  0  0  0  0  0
    7.3317    1.5278   -0.3586 H   0  0  0  0  0  0  0  0  0  0  0  0
  1  2  1  0  0  0  0
  1 30  1  0  0  0  0
  1 31  1  0  0  0  0
  1 32  1  0  0  0  0
  2  3  1  0  0  0  0
  3  4  2  0  0  0  0
  3  5  1  0  0  0  0
  5  6  2  0  0  0  0
  5 29  1  0  0  0  0
  6  7  1  0  0  0  0
  7  8  2  0  0  0  0
  7 33  1  0  0  0  0
  8  9  1  0  0  0  0
  8 34  1  0  0  0  0
  9 10  2  0  0  0  0
  9 29  1  0  0  0  0
 10 11  1  0  0  0  0
 10 35  1  0  0  0  0
 11 12  1  0  0  0  0
 11 27  2  0  0  0  0
 12 13  1  0  0  0  0
 12 36  1  0  0  0  0
 13 14  2  0  0  0  0
 13 15  1  0  0  0  0
 15 16  2  0  0  0  0
 15 26  1  0  0  0  0
 16 17  1  0  0  0  0
 16 37  1  0  0  0  0
 17 18  1  0  0  0  0
 17 25  1  0  0  0  0
 18 19  2  0  0  0  0
 18 23  1  0  0  0  0
 19 20  1  0  0  0  0
 19 38  1  0  0  0  0
 20 21  2  0  0  0  0
 20 39  1  0  0  0  0
 21 22  1  0  0  0  0
 21 40  1  0  0  0  0
 22 23  2  0  0  0  0
 22 41  1  0  0  0  0
 23 24  1  0  0  0  0
 25 26  2  0  0  0  0
 26 42  1  0  0  0  0
 27 28  1  0  0  0  0
 27 43  1  0  0  0  0
 28 29  2  0  0  0  0
 28 44  1  0  0  0  0
M  END
$$$$
