
 OpenBabel01122422493D

 43 46  0  0  0  0  0  0  0  0999 V2000
    1.2769   -0.7294   -0.6594 C   0  0  0  0  0  0  0  0  0  0  0  0
    2.6721   -0.4874   -0.4753 O   0  0  0  0  0  0  0  0  0  0  0  0
    3.2296   -1.1600    0.5625 C   0  0  0  0  0  0  0  0  0  0  0  0
    2.6472   -1.9119    1.3256 O   0  0  0  0  0  0  0  0  0  0  0  0
    4.6883   -0.8595    0.6432 C   0  0  0  0  0  0  0  0  0  0  0  0
    5.3172    0.0321   -0.2334 C   0  0  0  0  0  0  0  0  0  0  0  0
    6.6999    0.2692   -0.1607 C   0  0  0  0  0  0  0  0  0  0  0  0
    7.4750   -0.3914    0.8171 C   0  0  0  0  0  0  0  0  0  0  0  0
    8.8726   -0.4391    1.1474 C   0  0  0  0  0  0  0  0  0  0  0  0
   10.0398    0.2055    0.5476 C   0  0  0  0  0  0  0  0  0  0  0  0
   11.1304   -0.3585    0.5721 O   0  0  0  0  0  0  0  0  0  0  0  0
    9.8256    1.4840    0.0621 N   0  0  0  0  0  0  0  0  0  0  0  0
   10.8163    2.3108   -0.5202 C   0  0  0  0  0  0  0  0  0  0  0  0
   12.0311    1.8223   -1.0085 C   0  0  0  0  0  0  0  0  0  0  0  0
   12.9916    2.6883   -1.5321 C   0  0  0  0  0  0  0  0  0  0  0  0
   14.1516    2.1519   -1.9368 F   0  0  0  0  0  0  0  0  0  0  0  0
   12.7789    4.0637   -1.5553 C   0  0  0  0  0  0  0  0  0  0  0  0
   13.7788    4.9391   -2.0337 N   0  0  0  0  0  0  0  0  0  0  0  0
   14.7533    4.6620   -2.9676 C   0  0  0  0  0  0  0  0  0  0  0  0
   15.4901    5.8136   -3.1032 C   0  0  0  0  0  0  0  0  0  0  0  0
   15.0182    6.7902   -2.2733 N   0  0  0  0  0  0  0  0  0  0  0  0
   13.9959    6.2449   -1.6507 C   0  0  0  0  0  0  0  0  0  0  0  0
   11.5590    4.5487   -1.0831 C   0  0  0  0  0  0  0  0  0  0  0  0
   11.2694    5.8570   -1.1250 F   0  0  0  0  0  0  0  0  0  0  0  0
   10.5719    3.6834   -0.5987 C   0  0  0  0  0  0  0  0  0  0  0  0
    8.9957   -1.3372    2.1968 C   0  0  0  0  0  0  0  0  0  0  0  0
    7.7611   -1.8151    2.5184 N   0  0  0  0  0  0  0  0  0  0  0  0
    6.8150   -1.2727    1.6834 C   0  0  0  0  0  0  0  0  0  0  0  0
    5.4369   -1.5219    1.6242 C   0  0  0  0  0  0  0  0  0  0  0  0
    0.9807   -0.2662   -1.6046 H   0  0  0  0  0  0  0  0  0  0  0  0
    0.7051   -0.2670    0.1500 H   0  0  0  0  0  0  0  0  0  0  0  0
    1.0680   -1.8020   -0.7221 H   0  0  0  0  0  0  0  0  0  0  0  0
    4.7447    0.5475   -1.0027 H   0  0  0  0  0  0  0  0  0  0  0  0
    7.1570    0.9388   -0.8837 H   0  0  0  0  0  0  0  0  0  0  0  0
    8.9460    1.9162    0.3154 H   0  0  0  0  0  0  0  0  0  0  0  0
   12.2792    0.7653   -0.9981 H   0  0  0  0  0  0  0  0  0  0  0  0
   14.8196    3.7136   -3.4812 H   0  0  0  0  0  0  0  0  0  0  0  0
   16.3312    5.9887   -3.7618 H   0  0  0  0  0  0  0  0  0  0  0  0
   13.4130    6.7353   -0.8823 H   0  0  0  0  0  0  0  0  0  0  0  0
    9.6332    4.1132   -0.2615 H   0  0  0  0  0  0  0  0  0  0  0  0
    9.8789   -1.6754    2.7237 H   0  0  0  0  0  0  0  0  0  0  0  0
    7.5709   -2.4996    3.2391 H   0  0  0  0  0  0  0  0  0  0  0  0
    4.9676   -2.2270    2.3064 H   0  0  0  0  0  0  0  0  0  0  0  0
  1  2  1  0  0  0  0
  1 30  1  0  0  0  0
  1 31  1  0  0  0  0
  1 32  1  0  0  0  0
  2  3  1  0  0  0  0
  3  4  2  0  0  0  0
  3  5  1  0  0  0  0
  5  6  2  0  0  0  0
  5 29  1  0  0  0  0
  6  7  1  0  0  0  0
  6 33  1  0  0  0  0
  7  8  2  0  0  0  0
  7 34  1  0  0  0  0
  8  9  1  0  0  0  0
  8 28  1  0  0  0  0
  9 10  1  0  0  0  0
  9 26  2  0  0  0  0
 10 11  2  0  0  0  0
 10 12  1  0  0  0  0
 12 13  1  0  0  0  0
 12 35  1  0  0  0  0
 13 14  2  0  0  0  0
 13 25  1  0  0  0  0
 14 15  1  0  0  0  0
 14 36  1  0  0  0  0
 15 16  1  0  0  0  0
 15 17  2  0  0  0  0
 17 18  1  0  0  0  0
 17 23  1  0  0  0  0
 18 19  1  0  0  0  0
 18 22  1  0  0  0  0
 19 20  2  0  0  0  0
 19 37  1  0  0  0  0
 20 21  1  0  0  0  0
 20 38  1  0  0  0  0
 21 22  2  0  0  0  0
 22 39  1  0  0  0  0
 23 24  1  0  0  0  0
 23 25  2  0  0  0  0
 25 40  1  0  0  0  0
 26 27  1  0  0  0  0
 26 41  1  0  0  0  0
 27 28  1  0  0  0  0
 27 42  1  0  0  0  0
 28 29  2  0  0  0  0
 29 43  1  0  0  0  0
M  END
$$$$
