
 OpenBabel01122422493D

 42 45  0  0  0  0  0  0  0  0999 V2000
    1.0021   -0.2970    0.1173 O   0  0  0  0  0  0  0  0  0  0  0  0
    2.2244   -0.2091   -0.0172 C   0  0  0  0  0  0  0  0  0  0  0  0
    2.8511    1.1767    0.0295 C   0  0  0  0  0  0  0  0  0  0  0  0
    4.3566    1.3475   -0.0759 C   0  0  0  0  0  0  0  0  0  0  0  0
    5.1004    0.2841   -0.1846 N   0  0  0  0  0  0  0  0  0  0  0  0
    6.4435    0.4192   -0.2739 N   0  0  0  0  0  0  0  0  0  0  0  0
    7.1361    1.6009   -0.2369 C   0  0  0  0  0  0  0  0  0  0  0  0
    8.3590    1.6488   -0.3131 O   0  0  0  0  0  0  0  0  0  0  0  0
    6.3251    2.8208   -0.1070 C   0  0  0  0  0  0  0  0  0  0  0  0
    6.9521    4.0709   -0.0696 C   0  0  0  0  0  0  0  0  0  0  0  0
    6.1820    5.2269    0.0252 C   0  0  0  0  0  0  0  0  0  0  0  0
    4.7912    5.1320    0.0859 C   0  0  0  0  0  0  0  0  0  0  0  0
    4.1639    3.8804    0.0594 C   0  0  0  0  0  0  0  0  0  0  0  0
    4.9354    2.7159   -0.0374 C   0  0  0  0  0  0  0  0  0  0  0  0
    3.0769   -1.2630   -0.1675 N   0  0  0  0  0  0  0  0  0  0  0  0
    2.7297   -2.5942   -0.2862 C   0  0  0  0  0  0  0  0  0  0  0  0
    3.7312   -3.4608   -0.0613 N   0  0  0  0  0  0  0  0  0  0  0  0
    3.4422   -4.7770   -0.1232 C   0  0  0  0  0  0  0  0  0  0  0  0
    4.5486   -5.6942    0.2113 C   0  0  0  0  0  0  0  0  0  0  0  0
    5.5450   -5.3180    1.1317 C   0  0  0  0  0  0  0  0  0  0  0  0
    6.5942   -6.1819    1.4427 C   0  0  0  0  0  0  0  0  0  0  0  0
    7.5272   -5.7941    2.3218 F   0  0  0  0  0  0  0  0  0  0  0  0
    6.6895   -7.4338    0.8571 C   0  0  0  0  0  0  0  0  0  0  0  0
    5.7127   -7.8169   -0.0458 C   0  0  0  0  0  0  0  0  0  0  0  0
    5.7840   -9.0209   -0.6278 F   0  0  0  0  0  0  0  0  0  0  0  0
    4.6546   -6.9700   -0.3691 C   0  0  0  0  0  0  0  0  0  0  0  0
    2.1817   -5.2278   -0.4710 C   0  0  0  0  0  0  0  0  0  0  0  0
    1.2420   -4.2634   -0.7263 C   0  0  0  0  0  0  0  0  0  0  0  0
    1.4907   -2.9513   -0.6259 N   0  0  0  0  0  0  0  0  0  0  0  0
    2.5360    1.6234    0.9813 H   0  0  0  0  0  0  0  0  0  0  0  0
    2.3928    1.7442   -0.7897 H   0  0  0  0  0  0  0  0  0  0  0  0
    6.9879   -0.4325   -0.3787 H   0  0  0  0  0  0  0  0  0  0  0  0
    8.0371    4.1412   -0.1197 H   0  0  0  0  0  0  0  0  0  0  0  0
    6.6675    6.2001    0.0479 H   0  0  0  0  0  0  0  0  0  0  0  0
    4.1944    6.0400    0.1533 H   0  0  0  0  0  0  0  0  0  0  0  0
    3.0791    3.8498    0.1115 H   0  0  0  0  0  0  0  0  0  0  0  0
    4.0786   -1.1035   -0.1096 H   0  0  0  0  0  0  0  0  0  0  0  0
    5.5111   -4.3466    1.6217 H   0  0  0  0  0  0  0  0  0  0  0  0
    7.5113   -8.0968    1.0973 H   0  0  0  0  0  0  0  0  0  0  0  0
    3.9287   -7.3246   -1.0955 H   0  0  0  0  0  0  0  0  0  0  0  0
    1.9236   -6.2745   -0.5252 H   0  0  0  0  0  0  0  0  0  0  0  0
    0.2300   -4.5230   -1.0217 H   0  0  0  0  0  0  0  0  0  0  0  0
  1  2  2  0  0  0  0
  2  3  1  0  0  0  0
  2 15  1  0  0  0  0
  3  4  1  0  0  0  0
  3 30  1  0  0  0  0
  3 31  1  0  0  0  0
  4  5  2  0  0  0  0
  4 14  1  0  0  0  0
  5  6  1  0  0  0  0
  6  7  1  0  0  0  0
  6 32  1  0  0  0  0
  7  8  2  0  0  0  0
  7  9  1  0  0  0  0
  9 10  2  0  0  0  0
  9 14  1  0  0  0  0
 10 11  1  0  0  0  0
 10 33  1  0  0  0  0
 11 12  2  0  0  0  0
 11 34  1  0  0  0  0
 12 13  1  0  0  0  0
 12 35  1  0  0  0  0
 13 14  2  0  0  0  0
 13 36  1  0  0  0  0
 15 16  1  0  0  0  0
 15 37  1  0  0  0  0
 16 17  2  0  0  0  0
 16 29  1  0  0  0  0
 17 18  1  0  0  0  0
 18 19  1  0  0  0  0
 18 27  2  0  0  0  0
 19 20  2  0  0  0  0
 19 26  1  0  0  0  0
 20 21  1  0  0  0  0
 20 38  1  0  0  0  0
 21 22  1  0  0  0  0
 21 23  2  0  0  0  0
 23 24  1  0  0  0  0
 23 39  1  0  0  0  0
 24 25  1  0  0  0  0
 24 26  2  0  0  0  0
 26 40  1  0  0  0  0
 27 28  1  0  0  0  0
 27 41  1  0  0  0  0
 28 29  2  0  0  0  0
 28 42  1  0  0  0  0
M  END
$$$$
