
 OpenBabel01122422493D

 41 44  0  0  0  0  0  0  0  0999 V2000
    0.9283    0.0193    0.2223 O   0  0  0  0  0  0  0  0  0  0  0  0
    2.1377   -0.0654    0.0641 C   0  0  0  0  0  0  0  0  0  0  0  0
    2.7602   -1.0965   -0.6482 N   0  0  0  0  0  0  0  0  0  0  0  0
    1.9494   -2.4052   -1.2912 S   0  0  0  0  0  0  0  0  0  0  0  0
    2.9870   -3.2844   -1.7933 O   0  0  0  0  0  0  0  0  0  0  0  0
    0.9734   -2.8913   -0.3434 O   0  0  0  0  0  0  0  0  0  0  0  0
    1.1005   -1.7310   -2.6997 C   0  0  0  0  0  0  0  0  0  0  0  0
   -0.1907   -1.2056   -2.5575 C   0  0  0  0  0  0  0  0  0  0  0  0
   -0.9152   -0.7735   -3.6864 C   0  0  0  0  0  0  0  0  0  0  0  0
   -2.2138   -0.2465   -3.5764 C   0  0  0  0  0  0  0  0  0  0  0  0
   -2.9233    0.1573   -4.7113 C   0  0  0  0  0  0  0  0  0  0  0  0
   -2.3469    0.0422   -5.9726 C   0  0  0  0  0  0  0  0  0  0  0  0
   -1.0586   -0.4765   -6.1013 C   0  0  0  0  0  0  0  0  0  0  0  0
   -0.3310   -0.8877   -4.9696 C   0  0  0  0  0  0  0  0  0  0  0  0
    0.9607   -1.4254   -5.0777 C   0  0  0  0  0  0  0  0  0  0  0  0
    1.5277   -1.5657   -6.2865 F   0  0  0  0  0  0  0  0  0  0  0  0
    1.6778   -1.8463   -3.9630 C   0  0  0  0  0  0  0  0  0  0  0  0
    3.0302    0.9896    0.6115 C   0  0  0  0  0  0  0  0  0  0  0  0
    2.6015    1.7172    1.7357 C   0  0  0  0  0  0  0  0  0  0  0  0
    3.4057    2.7227    2.2872 C   0  0  0  0  0  0  0  0  0  0  0  0
    4.6449    3.0187    1.7185 C   0  0  0  0  0  0  0  0  0  0  0  0
    5.4624    4.0316    2.2349 N   0  0  0  0  0  0  0  0  0  0  0  0
    6.6753    4.3170    1.6681 C   0  0  0  0  0  0  0  0  0  0  0  0
    7.1691    3.7054    0.5862 C   0  0  0  0  0  0  0  0  0  0  0  0
    6.3608    2.6329   -0.0405 C   0  0  0  0  0  0  0  0  0  0  0  0
    6.7659    2.0351   -1.0306 O   0  0  0  0  0  0  0  0  0  0  0  0
    5.0540    2.3009    0.5799 C   0  0  0  0  0  0  0  0  0  0  0  0
    4.2628    1.2872    0.0283 C   0  0  0  0  0  0  0  0  0  0  0  0
    3.7661   -1.2397   -0.6387 H   0  0  0  0  0  0  0  0  0  0  0  0
   -0.6430   -1.1476   -1.5671 H   0  0  0  0  0  0  0  0  0  0  0  0
   -2.6883   -0.1506   -2.6015 H   0  0  0  0  0  0  0  0  0  0  0  0
   -3.9289    0.5584   -4.6095 H   0  0  0  0  0  0  0  0  0  0  0  0
   -2.8985    0.3520   -6.8567 H   0  0  0  0  0  0  0  0  0  0  0  0
   -0.6210   -0.5668   -7.0943 H   0  0  0  0  0  0  0  0  0  0  0  0
    2.6620   -2.2831   -4.1043 H   0  0  0  0  0  0  0  0  0  0  0  0
    1.6339    1.5021    2.1898 H   0  0  0  0  0  0  0  0  0  0  0  0
    3.0527    3.2674    3.1600 H   0  0  0  0  0  0  0  0  0  0  0  0
    5.2003    4.4990    3.0952 H   0  0  0  0  0  0  0  0  0  0  0  0
    7.2322    5.1029    2.1710 H   0  0  0  0  0  0  0  0  0  0  0  0
    8.1269    3.9417    0.1445 H   0  0  0  0  0  0  0  0  0  0  0  0
    4.6081    0.7789   -0.8673 H   0  0  0  0  0  0  0  0  0  0  0  0
  1  2  2  0  0  0  0
  2  3  1  0  0  0  0
  2 18  1  0  0  0  0
  3  4  1  0  0  0  0
  3 29  1  0  0  0  0
  4  5  2  0  0  0  0
  4  6  2  0  0  0  0
  4  7  1  0  0  0  0
  7  8  2  0  0  0  0
  7 17  1  0  0  0  0
  8  9  1  0  0  0  0
  8 30  1  0  0  0  0
  9 10  2  0  0  0  0
  9 14  1  0  0  0  0
 10 11  1  0  0  0  0
 10 31  1  0  0  0  0
 11 12  2  0  0  0  0
 11 32  1  0  0  0  0
 12 13  1  0  0  0  0
 12 33  1  0  0  0  0
 13 14  2  0  0  0  0
 13 34  1  0  0  0  0
 14 15  1  0  0  0  0
 15 16  1  0  0  0  0
 15 17  2  0  0  0  0
 17 35  1  0  0  0  0
 18 19  2  0  0  0  0
 18 28  1  0  0  0  0
 19 20  1  0  0  0  0
 19 36  1  0  0  0  0
 20 21  2  0  0  0  0
 20 37  1  0  0  0  0
 21 22  1  0  0  0  0
 21 27  1  0  0  0  0
 22 23  1  0  0  0  0
 22 38  1  0  0  0  0
 23 24  2  0  0  0  0
 23 39  1  0  0  0  0
 24 25  1  0  0  0  0
 24 40  1  0  0  0  0
 25 26  2  0  0  0  0
 25 27  1  0  0  0  0
 27 28  2  0  0  0  0
 28 41  1  0  0  0  0
M  END
$$$$
