
 OpenBabel01122422493D

 49 52  0  0  0  0  0  0  0  0999 V2000
    1.1249   -0.2122    0.3854 C   0  0  0  0  0  0  0  0  0  0  0  0
    2.5526   -0.2278    0.3212 O   0  0  0  0  0  0  0  0  0  0  0  0
    3.0560   -1.2734   -0.3842 C   0  0  0  0  0  0  0  0  0  0  0  0
    2.4050   -2.1553   -0.9151 O   0  0  0  0  0  0  0  0  0  0  0  0
    4.5402   -1.1426   -0.4696 C   0  0  0  0  0  0  0  0  0  0  0  0
    5.2491   -0.5911    0.6106 C   0  0  0  0  0  0  0  0  0  0  0  0
    6.6366   -0.4361    0.5250 C   0  0  0  0  0  0  0  0  0  0  0  0
    7.3412   -0.8393   -0.6098 C   0  0  0  0  0  0  0  0  0  0  0  0
    6.6359   -1.4127   -1.6678 C   0  0  0  0  0  0  0  0  0  0  0  0
    5.2365   -1.5590   -1.6246 C   0  0  0  0  0  0  0  0  0  0  0  0
    4.5353   -2.1051   -2.8393 C   0  0  0  0  0  0  0  0  0  0  0  0
    8.7298   -0.6694   -0.7450 N   0  0  0  0  0  0  0  0  0  0  0  0
    9.3715   -0.0977    0.2236 C   0  0  0  0  0  0  0  0  0  0  0  0
   10.8440    0.1335    0.1741 C   0  0  0  0  0  0  0  0  0  0  0  0
   11.5719   -0.2202   -0.9511 C   0  0  0  0  0  0  0  0  0  0  0  0
   12.9574   -0.0531   -0.9230 C   0  0  0  0  0  0  0  0  0  0  0  0
   13.5998    0.4429    0.2219 C   0  0  0  0  0  0  0  0  0  0  0  0
   15.0755    0.5318    0.3268 C   0  0  0  0  0  0  0  0  0  0  0  0
   15.9111   -0.4115   -0.3083 C   0  0  0  0  0  0  0  0  0  0  0  0
   17.3105   -0.3986   -0.1589 C   0  0  0  0  0  0  0  0  0  0  0  0
   18.1860   -1.4112   -0.8536 C   0  0  0  0  0  0  0  0  0  0  0  0
   17.5397   -2.6725   -0.9714 O   0  0  0  0  0  0  0  0  0  0  0  0
   17.8935    0.6116    0.6114 C   0  0  0  0  0  0  0  0  0  0  0  0
   17.0961    1.5675    1.2351 C   0  0  0  0  0  0  0  0  0  0  0  0
   15.7056    1.5266    1.0942 C   0  0  0  0  0  0  0  0  0  0  0  0
   12.7523    0.7958    1.2812 C   0  0  0  0  0  0  0  0  0  0  0  0
   11.3989    0.6633    1.2918 N   0  0  0  0  0  0  0  0  0  0  0  0
    8.7504    0.3300    1.3764 N   0  0  0  0  0  0  0  0  0  0  0  0
    7.4080    0.1847    1.6164 C   0  0  0  0  0  0  0  0  0  0  0  0
    6.8770    0.5496    2.6592 O   0  0  0  0  0  0  0  0  0  0  0  0
    0.8226    0.6488    0.9873 H   0  0  0  0  0  0  0  0  0  0  0  0
    0.7494   -1.1204    0.8652 H   0  0  0  0  0  0  0  0  0  0  0  0
    0.7004   -0.0996   -0.6171 H   0  0  0  0  0  0  0  0  0  0  0  0
    4.7300   -0.2698    1.5119 H   0  0  0  0  0  0  0  0  0  0  0  0
    7.1928   -1.7276   -2.5489 H   0  0  0  0  0  0  0  0  0  0  0  0
    5.2443   -2.3284   -3.6439 H   0  0  0  0  0  0  0  0  0  0  0  0
    3.8281   -1.3648   -3.2282 H   0  0  0  0  0  0  0  0  0  0  0  0
    4.0124   -3.0367   -2.6051 H   0  0  0  0  0  0  0  0  0  0  0  0
   11.0833   -0.6332   -1.8284 H   0  0  0  0  0  0  0  0  0  0  0  0
   13.5276   -0.3309   -1.8070 H   0  0  0  0  0  0  0  0  0  0  0  0
   15.4722   -1.1986   -0.9208 H   0  0  0  0  0  0  0  0  0  0  0  0
   19.1104   -1.5731   -0.2890 H   0  0  0  0  0  0  0  0  0  0  0  0
   18.4470   -1.0562   -1.8551 H   0  0  0  0  0  0  0  0  0  0  0  0
   17.2684   -2.9306   -0.0737 H   0  0  0  0  0  0  0  0  0  0  0  0
   18.9739    0.6616    0.7309 H   0  0  0  0  0  0  0  0  0  0  0  0
   17.5565    2.3485    1.8357 H   0  0  0  0  0  0  0  0  0  0  0  0
   15.1234    2.2981    1.5940 H   0  0  0  0  0  0  0  0  0  0  0  0
   13.1544    1.1879    2.2132 H   0  0  0  0  0  0  0  0  0  0  0  0
    9.3203    0.7567    2.0978 H   0  0  0  0  0  0  0  0  0  0  0  0
  1  2  1  0  0  0  0
  1 31  1  0  0  0  0
  1 32  1  0  0  0  0
  1 33  1  0  0  0  0
  2  3  1  0  0  0  0
  3  4  2  0  0  0  0
  3  5  1  0  0  0  0
  5  6  2  0  0  0  0
  5 10  1  0  0  0  0
  6  7  1  0  0  0  0
  6 34  1  0  0  0  0
  7  8  2  0  0  0  0
  7 29  1  0  0  0  0
  8  9  1  0  0  0  0
  8 12  1  0  0  0  0
  9 10  2  0  0  0  0
  9 35  1  0  0  0  0
 10 11  1  0  0  0  0
 11 36  1  0  0  0  0
 11 37  1  0  0  0  0
 11 38  1  0  0  0  0
 12 13  2  0  0  0  0
 13 14  1  0  0  0  0
 13 28  1  0  0  0  0
 14 15  2  0  0  0  0
 14 27  1  0  0  0  0
 15 16  1  0  0  0  0
 15 39  1  0  0  0  0
 16 17  2  0  0  0  0
 16 40  1  0  0  0  0
 17 18  1  0  0  0  0
 17 26  1  0  0  0  0
 18 19  2  0  0  0  0
 18 25  1  0  0  0  0
 19 20  1  0  0  0  0
 19 41  1  0  0  0  0
 20 21  1  0  0  0  0
 20 23  2  0  0  0  0
 21 22  1  0  0  0  0
 21 42  1  0  0  0  0
 21 43  1  0  0  0  0
 22 44  1  0  0  0  0
 23 24  1  0  0  0  0
 23 45  1  0  0  0  0
 24 25  2  0  0  0  0
 24 46  1  0  0  0  0
 25 47  1  0  0  0  0
 26 27  2  0  0  0  0
 26 48  1  0  0  0  0
 28 29  1  0  0  0  0
 28 49  1  0  0  0  0
 29 30  2  0  0  0  0
M  END
$$$$
