
 OpenBabel01122422493D

 50 53  0  0  0  0  0  0  0  0999 V2000
    1.0370    0.1451    0.1270 C   0  0  0  0  0  0  0  0  0  0  0  0
    2.4743    0.0375    0.2779 N   0  0  0  0  0  0  0  0  0  0  0  0
    3.0475   -1.2316    0.2945 C   0  0  0  0  0  0  0  0  0  0  0  0
    2.4546   -2.2646   -0.0163 O   0  0  0  0  0  0  0  0  0  0  0  0
    4.4520   -1.2685    0.8766 C   0  0  0  0  0  0  0  0  0  0  0  0
    5.3169   -0.1983    0.5680 O   0  0  0  0  0  0  0  0  0  0  0  0
    4.6865    1.0144    0.5588 C   0  0  0  0  0  0  0  0  0  0  0  0
    5.5378    2.1083    0.6500 C   0  0  0  0  0  0  0  0  0  0  0  0
    5.0244    3.4002    0.5949 C   0  0  0  0  0  0  0  0  0  0  0  0
    3.6550    3.6222    0.4399 C   0  0  0  0  0  0  0  0  0  0  0  0
    3.1012    4.9259    0.3381 N   0  0  0  0  0  0  0  0  0  0  0  0
    3.7999    6.1170    0.3929 C   0  0  0  0  0  0  0  0  0  0  0  0
    5.0039    6.2503    0.5634 O   0  0  0  0  0  0  0  0  0  0  0  0
    2.9847    7.2136    0.2447 N   0  0  0  0  0  0  0  0  0  0  0  0
    3.5460    8.5518    0.2905 C   0  0  0  0  0  0  0  0  0  0  0  0
    3.6547    9.0999    1.6964 C   0  0  0  0  0  0  0  0  0  0  0  0
    4.7879    8.8385    2.4616 C   0  0  0  0  0  0  0  0  0  0  0  0
    4.9268    9.4615    3.7010 C   0  0  0  0  0  0  0  0  0  0  0  0
    6.0492    9.3571    4.4984 O   0  0  0  0  0  0  0  0  0  0  0  0
    7.2742    9.1914    3.8864 C   0  0  0  0  0  0  0  0  0  0  0  0
    7.6430    9.8721    2.7163 C   0  0  0  0  0  0  0  0  0  0  0  0
    8.8486    9.5713    2.0828 C   0  0  0  0  0  0  0  0  0  0  0  0
    9.7102    8.6461    2.6603 C   0  0  0  0  0  0  0  0  0  0  0  0
   10.8582    8.3439    2.0391 F   0  0  0  0  0  0  0  0  0  0  0  0
    9.3852    8.0412    3.8704 C   0  0  0  0  0  0  0  0  0  0  0  0
   10.2381    7.1776    4.4392 F   0  0  0  0  0  0  0  0  0  0  0  0
    8.1703    8.3104    4.4934 C   0  0  0  0  0  0  0  0  0  0  0  0
    3.8797   10.2260    4.1975 C   0  0  0  0  0  0  0  0  0  0  0  0
    2.7643   10.3928    3.3958 C   0  0  0  0  0  0  0  0  0  0  0  0
    2.6348    9.8664    2.1568 N   0  0  0  0  0  0  0  0  0  0  0  0
    2.7961    2.5085    0.3623 C   0  0  0  0  0  0  0  0  0  0  0  0
    3.3020    1.1910    0.4187 C   0  0  0  0  0  0  0  0  0  0  0  0
    0.5718   -0.8383    0.0047 H   0  0  0  0  0  0  0  0  0  0  0  0
    0.7873    0.7540   -0.7451 H   0  0  0  0  0  0  0  0  0  0  0  0
    0.6237    0.5895    1.0385 H   0  0  0  0  0  0  0  0  0  0  0  0
    4.9390   -2.1872    0.5329 H   0  0  0  0  0  0  0  0  0  0  0  0
    4.3521   -1.3400    1.9673 H   0  0  0  0  0  0  0  0  0  0  0  0
    6.6091    1.9607    0.7600 H   0  0  0  0  0  0  0  0  0  0  0  0
    5.7418    4.2093    0.6665 H   0  0  0  0  0  0  0  0  0  0  0  0
    2.0995    4.9937    0.2461 H   0  0  0  0  0  0  0  0  0  0  0  0
    2.0422    7.1137   -0.0927 H   0  0  0  0  0  0  0  0  0  0  0  0
    2.8967    9.2018   -0.3082 H   0  0  0  0  0  0  0  0  0  0  0  0
    4.5312    8.5589   -0.1907 H   0  0  0  0  0  0  0  0  0  0  0  0
    5.5626    8.1862    2.0701 H   0  0  0  0  0  0  0  0  0  0  0  0
    6.9774   10.6061    2.2681 H   0  0  0  0  0  0  0  0  0  0  0  0
    9.1109   10.0407    1.1399 H   0  0  0  0  0  0  0  0  0  0  0  0
    7.9238    7.8164    5.4275 H   0  0  0  0  0  0  0  0  0  0  0  0
    3.9353   10.6882    5.1758 H   0  0  0  0  0  0  0  0  0  0  0  0
    1.9195   10.9866    3.7340 H   0  0  0  0  0  0  0  0  0  0  0  0
    1.7313    2.6768    0.2300 H   0  0  0  0  0  0  0  0  0  0  0  0
  1  2  1  0  0  0  0
  1 33  1  0  0  0  0
  1 34  1  0  0  0  0
  1 35  1  0  0  0  0
  2  3  1  0  0  0  0
  2 32  1  0  0  0  0
  3  4  2  0  0  0  0
  3  5  1  0  0  0  0
  5  6  1  0  0  0  0
  5 36  1  0  0  0  0
  5 37  1  0  0  0  0
  6  7  1  0  0  0  0
  7  8  2  0  0  0  0
  7 32  1  0  0  0  0
  8  9  1  0  0  0  0
  8 38  1  0  0  0  0
  9 10  2  0  0  0  0
  9 39  1  0  0  0  0
 10 11  1  0  0  0  0
 10 31  1  0  0  0  0
 11 12  1  0  0  0  0
 11 40  1  0  0  0  0
 12 13  2  0  0  0  0
 12 14  1  0  0  0  0
 14 15  1  0  0  0  0
 14 41  1  0  0  0  0
 15 16  1  0  0  0  0
 15 42  1  0  0  0  0
 15 43  1  0  0  0  0
 16 17  2  0  0  0  0
 16 30  1  0  0  0  0
 17 18  1  0  0  0  0
 17 44  1  0  0  0  0
 18 19  1  0  0  0  0
 18 28  2  0  0  0  0
 19 20  1  0  0  0  0
 20 21  2  0  0  0  0
 20 27  1  0  0  0  0
 21 22  1  0  0  0  0
 21 45  1  0  0  0  0
 22 23  2  0  0  0  0
 22 46  1  0  0  0  0
 23 24  1  0  0  0  0
 23 25  1  0  0  0  0
 25 26  1  0  0  0  0
 25 27  2  0  0  0  0
 27 47  1  0  0  0  0
 28 29  1  0  0  0  0
 28 48  1  0  0  0  0
 29 30  2  0  0  0  0
 29 49  1  0  0  0  0
 31 32  2  0  0  0  0
 31 50  1  0  0  0  0
M  END
$$$$
