
 OpenBabel01122422493D

 45 48  0  0  0  0  0  0  0  0999 V2000
    7.2734    6.3182   -1.4036 C   0  0  0  0  0  0  0  0  0  0  0  0
    6.4219    5.2103   -1.7632 N   0  0  0  0  0  0  0  0  0  0  0  0
    6.4893    4.4795   -2.9090 C   0  0  0  0  0  0  0  0  0  0  0  0
    5.5615    3.4759   -2.7661 C   0  0  0  0  0  0  0  0  0  0  0  0
    4.9926    3.6720   -1.4902 C   0  0  0  0  0  0  0  0  0  0  0  0
    3.9751    2.8481   -0.7897 C   0  0  0  0  0  0  0  0  0  0  0  0
    3.4116    1.6187   -1.0858 C   0  0  0  0  0  0  0  0  0  0  0  0
    3.7376    0.7094   -2.1696 C   0  0  0  0  0  0  0  0  0  0  0  0
    4.8894    0.5772   -2.5632 O   0  0  0  0  0  0  0  0  0  0  0  0
    2.6356    0.0549   -2.6962 N   0  0  0  0  0  0  0  0  0  0  0  0
    2.6405   -0.8477   -3.7814 C   0  0  0  0  0  0  0  0  0  0  0  0
    3.8016   -1.3918   -4.3412 C   0  0  0  0  0  0  0  0  0  0  0  0
    3.7398   -2.1835   -5.4947 C   0  0  0  0  0  0  0  0  0  0  0  0
    2.5105   -2.4449   -6.0933 C   0  0  0  0  0  0  0  0  0  0  0  0
    2.5367   -3.1430   -7.2787 O   0  0  0  0  0  0  0  0  0  0  0  0
    1.7016   -2.7470   -8.3093 C   0  0  0  0  0  0  0  0  0  0  0  0
    1.2534   -1.4260   -8.4673 C   0  0  0  0  0  0  0  0  0  0  0  0
    0.3406   -1.1018   -9.4712 C   0  0  0  0  0  0  0  0  0  0  0  0
   -0.0734   -2.0773  -10.3743 C   0  0  0  0  0  0  0  0  0  0  0  0
    0.4325   -3.3730  -10.2783 C   0  0  0  0  0  0  0  0  0  0  0  0
    1.3203   -3.7168   -9.2471 C   0  0  0  0  0  0  0  0  0  0  0  0
    1.8232   -5.0604   -9.1802 C   0  0  0  0  0  0  0  0  0  0  0  0
    2.2185   -6.1502   -9.1624 N   0  0  0  0  0  0  0  0  0  0  0  0
    1.3453   -2.0086   -5.4597 C   0  0  0  0  0  0  0  0  0  0  0  0
    0.1368   -2.3126   -5.9556 F   0  0  0  0  0  0  0  0  0  0  0  0
    1.4036   -1.1951   -4.3307 C   0  0  0  0  0  0  0  0  0  0  0  0
    2.4886    1.4101   -0.0290 C   0  0  0  0  0  0  0  0  0  0  0  0
    2.4632    2.4109    0.8523 N   0  0  0  0  0  0  0  0  0  0  0  0
    3.4083    3.2501    0.3878 N   0  0  0  0  0  0  0  0  0  0  0  0
    5.4796    4.7756   -0.9022 N   0  0  0  0  0  0  0  0  0  0  0  0
    7.9482    6.5403   -2.2346 H   0  0  0  0  0  0  0  0  0  0  0  0
    7.8537    6.0296   -0.5234 H   0  0  0  0  0  0  0  0  0  0  0  0
    6.6473    7.1869   -1.1890 H   0  0  0  0  0  0  0  0  0  0  0  0
    7.1885    4.7041   -3.7019 H   0  0  0  0  0  0  0  0  0  0  0  0
    5.3608    2.7010   -3.4895 H   0  0  0  0  0  0  0  0  0  0  0  0
    1.7273    0.3540   -2.3632 H   0  0  0  0  0  0  0  0  0  0  0  0
    4.7832   -1.2124   -3.9107 H   0  0  0  0  0  0  0  0  0  0  0  0
    4.6583   -2.5690   -5.9311 H   0  0  0  0  0  0  0  0  0  0  0  0
    1.5766   -0.6353   -7.7958 H   0  0  0  0  0  0  0  0  0  0  0  0
   -0.0508   -0.0891   -9.5383 H   0  0  0  0  0  0  0  0  0  0  0  0
   -0.7851   -1.8216  -11.1557 H   0  0  0  0  0  0  0  0  0  0  0  0
    0.1224   -4.1208  -11.0109 H   0  0  0  0  0  0  0  0  0  0  0  0
    0.4706   -0.8177   -3.9252 H   0  0  0  0  0  0  0  0  0  0  0  0
    1.8498    0.5528    0.1454 H   0  0  0  0  0  0  0  0  0  0  0  0
    3.6223    4.1000    0.9006 H   0  0  0  0  0  0  0  0  0  0  0  0
  1  2  1  0  0  0  0
  1 31  1  0  0  0  0
  1 32  1  0  0  0  0
  1 33  1  0  0  0  0
  2  3  1  0  0  0  0
  2 30  1  0  0  0  0
  3  4  2  0  0  0  0
  3 34  1  0  0  0  0
  4  5  1  0  0  0  0
  4 35  1  0  0  0  0
  5  6  1  0  0  0  0
  5 30  2  0  0  0  0
  6  7  2  0  0  0  0
  6 29  1  0  0  0  0
  7  8  1  0  0  0  0
  7 27  1  0  0  0  0
  8  9  2  0  0  0  0
  8 10  1  0  0  0  0
 10 11  1  0  0  0  0
 10 36  1  0  0  0  0
 11 12  2  0  0  0  0
 11 26  1  0  0  0  0
 12 13  1  0  0  0  0
 12 37  1  0  0  0  0
 13 14  2  0  0  0  0
 13 38  1  0  0  0  0
 14 15  1  0  0  0  0
 14 24  1  0  0  0  0
 15 16  1  0  0  0  0
 16 17  2  0  0  0  0
 16 21  1  0  0  0  0
 17 18  1  0  0  0  0
 17 39  1  0  0  0  0
 18 19  2  0  0  0  0
 18 40  1  0  0  0  0
 19 20  1  0  0  0  0
 19 41  1  0  0  0  0
 20 21  2  0  0  0  0
 20 42  1  0  0  0  0
 21 22  1  0  0  0  0
 22 23  3  0  0  0  0
 24 25  1  0  0  0  0
 24 26  2  0  0  0  0
 26 43  1  0  0  0  0
 27 28  2  0  0  0  0
 27 44  1  0  0  0  0
 28 29  1  0  0  0  0
 29 45  1  0  0  0  0
M  END
$$$$
