
 OpenBabel01122422493D

 43 46  0  0  0  0  0  0  0  0999 V2000
    1.3614   -0.2320   -0.5912 O   0  0  0  0  0  0  0  0  0  0  0  0
    2.5334   -0.1637   -0.2117 C   0  0  0  0  0  0  0  0  0  0  0  0
    3.2689    1.0445   -0.6535 C   0  0  0  0  0  0  0  0  0  0  0  0
    3.1015    1.4644   -1.9777 C   0  0  0  0  0  0  0  0  0  0  0  0
    3.6767    2.6663   -2.4179 C   0  0  0  0  0  0  0  0  0  0  0  0
    3.4871    3.1265   -3.7263 C   0  0  0  0  0  0  0  0  0  0  0  0
    4.0282    4.3454   -4.1128 C   0  0  0  0  0  0  0  0  0  0  0  0
    4.7589    5.0538   -3.1781 C   0  0  0  0  0  0  0  0  0  0  0  0
    4.9834    4.6293   -1.9130 N   0  0  0  0  0  0  0  0  0  0  0  0
    4.4428    3.4579   -1.5340 C   0  0  0  0  0  0  0  0  0  0  0  0
    4.6113    3.0132   -0.2300 C   0  0  0  0  0  0  0  0  0  0  0  0
    4.0150    1.8328    0.2161 C   0  0  0  0  0  0  0  0  0  0  0  0
    4.1514    1.4981    1.5080 F   0  0  0  0  0  0  0  0  0  0  0  0
    3.1233   -1.1325    0.6105 N   0  0  0  0  0  0  0  0  0  0  0  0
    2.2504   -2.2280    1.0668 C   0  0  0  0  0  0  0  0  0  0  0  0
    2.0378   -2.3156    2.5618 C   0  0  0  0  0  0  0  0  0  0  0  0
    1.8581   -1.1735    3.3527 C   0  0  0  0  0  0  0  0  0  0  0  0
    1.7450   -1.2886    4.7397 C   0  0  0  0  0  0  0  0  0  0  0  0
    1.7853   -2.5437    5.3459 C   0  0  0  0  0  0  0  0  0  0  0  0
    1.8990   -3.6902    4.5642 C   0  0  0  0  0  0  0  0  0  0  0  0
    2.0104   -3.5782    3.1787 C   0  0  0  0  0  0  0  0  0  0  0  0
    4.5369   -1.3517    0.6505 C   0  0  0  0  0  0  0  0  0  0  0  0
    5.2768   -0.8926   -0.3795 N   0  0  0  0  0  0  0  0  0  0  0  0
    6.5868   -1.1828   -0.3809 C   0  0  0  0  0  0  0  0  0  0  0  0
    7.2347   -1.8953    0.5395 N   0  0  0  0  0  0  0  0  0  0  0  0
    6.4614   -2.3061    1.5475 C   0  0  0  0  0  0  0  0  0  0  0  0
    7.1129   -3.0465    2.4806 O   0  0  0  0  0  0  0  0  0  0  0  0
    5.1207   -2.0669    1.6743 C   0  0  0  0  0  0  0  0  0  0  0  0
    2.4980    0.8625   -2.6546 H   0  0  0  0  0  0  0  0  0  0  0  0
    2.9050    2.5492   -4.4407 H   0  0  0  0  0  0  0  0  0  0  0  0
    3.8758    4.7345   -5.1131 H   0  0  0  0  0  0  0  0  0  0  0  0
    5.1942    6.0183   -3.4257 H   0  0  0  0  0  0  0  0  0  0  0  0
    5.1944    3.6095    0.4657 H   0  0  0  0  0  0  0  0  0  0  0  0
    2.6889   -3.1635    0.6924 H   0  0  0  0  0  0  0  0  0  0  0  0
    1.2601   -2.1652    0.6023 H   0  0  0  0  0  0  0  0  0  0  0  0
    1.8262   -0.1857    2.8975 H   0  0  0  0  0  0  0  0  0  0  0  0
    1.6350   -0.3957    5.3498 H   0  0  0  0  0  0  0  0  0  0  0  0
    1.7223   -2.6282    6.4276 H   0  0  0  0  0  0  0  0  0  0  0  0
    1.9111   -4.6707    5.0333 H   0  0  0  0  0  0  0  0  0  0  0  0
    2.0999   -4.4851    2.5836 H   0  0  0  0  0  0  0  0  0  0  0  0
    7.1704   -0.8093   -1.2142 H   0  0  0  0  0  0  0  0  0  0  0  0
    8.0043   -3.0839    2.0913 H   0  0  0  0  0  0  0  0  0  0  0  0
    4.6006   -2.4174    2.5519 H   0  0  0  0  0  0  0  0  0  0  0  0
  1  2  2  0  0  0  0
  2  3  1  0  0  0  0
  2 14  1  0  0  0  0
  3  4  2  0  0  0  0
  3 12  1  0  0  0  0
  4  5  1  0  0  0  0
  4 29  1  0  0  0  0
  5  6  2  0  0  0  0
  5 10  1  0  0  0  0
  6  7  1  0  0  0  0
  6 30  1  0  0  0  0
  7  8  2  0  0  0  0
  7 31  1  0  0  0  0
  8  9  1  0  0  0  0
  8 32  1  0  0  0  0
  9 10  2  0  0  0  0
 10 11  1  0  0  0  0
 11 12  2  0  0  0  0
 11 33  1  0  0  0  0
 12 13  1  0  0  0  0
 14 15  1  0  0  0  0
 14 22  1  0  0  0  0
 15 16  1  0  0  0  0
 15 34  1  0  0  0  0
 15 35  1  0  0  0  0
 16 17  2  0  0  0  0
 16 21  1  0  0  0  0
 17 18  1  0  0  0  0
 17 36  1  0  0  0  0
 18 19  2  0  0  0  0
 18 37  1  0  0  0  0
 19 20  1  0  0  0  0
 19 38  1  0  0  0  0
 20 21  2  0  0  0  0
 20 39  1  0  0  0  0
 21 40  1  0  0  0  0
 22 23  2  0  0  0  0
 22 28  1  0  0  0  0
 23 24  1  0  0  0  0
 24 25  2  0  0  0  0
 24 41  1  0  0  0  0
 25 26  1  0  0  0  0
 26 27  1  0  0  0  0
 26 28  2  0  0  0  0
 27 42  1  0  0  0  0
 28 43  1  0  0  0  0
M  END
$$$$
