
 OpenBabel01122422493D

 56 59  0  0  0  0  0  0  0  0999 V2000
    2.4928   -2.5980   -0.2937 N   0  0  0  0  0  0  0  0  0  0  0  0
    3.2447   -1.8167    0.1194 C   0  0  0  0  0  0  0  0  0  0  0  0
    4.1895   -0.8724    0.6232 C   0  0  0  0  0  0  0  0  0  0  0  0
    5.2992   -0.3773   -0.0250 C   0  0  0  0  0  0  0  0  0  0  0  0
    5.8007   -0.6972   -1.2538 N   0  0  0  0  0  0  0  0  0  0  0  0
    5.8919    0.5322    0.8726 N   0  0  0  0  0  0  0  0  0  0  0  0
    6.9880    1.4203    0.6536 C   0  0  0  0  0  0  0  0  0  0  0  0
    7.3367    1.8155   -0.6366 C   0  0  0  0  0  0  0  0  0  0  0  0
    8.4343    2.6544   -0.8568 C   0  0  0  0  0  0  0  0  0  0  0  0
    9.2234    3.1215    0.1919 C   0  0  0  0  0  0  0  0  0  0  0  0
   10.3654    4.0870    0.0358 C   0  0  0  0  0  0  0  0  0  0  0  0
   10.5359    4.8644    0.9793 O   0  0  0  0  0  0  0  0  0  0  0  0
   11.2038    4.1402   -1.0929 N   0  0  0  0  0  0  0  0  0  0  0  0
   11.1965    3.2103   -2.2338 C   0  0  0  0  0  0  0  0  0  0  0  0
   10.2785    3.6499   -3.3852 C   0  0  0  0  0  0  0  0  0  0  0  0
    9.5826    4.8129   -3.2048 N   0  0  0  0  0  0  0  0  0  0  0  0
   10.1118    2.9758   -4.3969 O   0  0  0  0  0  0  0  0  0  0  0  0
   12.3472    5.0736   -1.0563 C   0  0  0  0  0  0  0  0  0  0  0  0
   13.6321    4.4014   -0.6117 C   0  0  0  0  0  0  0  0  0  0  0  0
   14.7746    4.3681   -1.4225 C   0  0  0  0  0  0  0  0  0  0  0  0
   15.9306    3.6741   -1.0152 C   0  0  0  0  0  0  0  0  0  0  0  0
   15.9898    3.0003    0.2178 C   0  0  0  0  0  0  0  0  0  0  0  0
   17.1701    2.2093    0.6541 C   0  0  0  0  0  0  0  0  0  0  0  0
   18.4860    2.5667    0.3127 C   0  0  0  0  0  0  0  0  0  0  0  0
   19.5867    1.8384    0.7862 C   0  0  0  0  0  0  0  0  0  0  0  0
   19.3982    0.7360    1.6151 C   0  0  0  0  0  0  0  0  0  0  0  0
   18.1084    0.3436    1.9490 C   0  0  0  0  0  0  0  0  0  0  0  0
   17.0129    1.0640    1.4628 C   0  0  0  0  0  0  0  0  0  0  0  0
   14.8594    3.1074    1.0458 C   0  0  0  0  0  0  0  0  0  0  0  0
   13.7080    3.7914    0.6441 C   0  0  0  0  0  0  0  0  0  0  0  0
    8.8294    2.7685    1.4967 C   0  0  0  0  0  0  0  0  0  0  0  0
    7.7167    1.9377    1.7308 C   0  0  0  0  0  0  0  0  0  0  0  0
    5.2810    0.4851    2.0900 N   0  0  0  0  0  0  0  0  0  0  0  0
    4.2275   -0.3142    1.9069 C   0  0  0  0  0  0  0  0  0  0  0  0
    5.4089   -1.4828   -1.7697 H   0  0  0  0  0  0  0  0  0  0  0  0
    6.8007   -0.6059   -1.4370 H   0  0  0  0  0  0  0  0  0  0  0  0
    6.7347    1.5476   -1.5013 H   0  0  0  0  0  0  0  0  0  0  0  0
    8.5906    2.9468   -1.8791 H   0  0  0  0  0  0  0  0  0  0  0  0
   10.8958    2.2169   -1.8927 H   0  0  0  0  0  0  0  0  0  0  0  0
   12.2079    3.1308   -2.6484 H   0  0  0  0  0  0  0  0  0  0  0  0
    9.5964    5.2957   -2.3140 H   0  0  0  0  0  0  0  0  0  0  0  0
    8.8614    5.0473   -3.8753 H   0  0  0  0  0  0  0  0  0  0  0  0
   12.1408    5.9157   -0.3896 H   0  0  0  0  0  0  0  0  0  0  0  0
   12.4602    5.4984   -2.0678 H   0  0  0  0  0  0  0  0  0  0  0  0
   14.7805    4.8694   -2.3883 H   0  0  0  0  0  0  0  0  0  0  0  0
   16.7811    3.6529   -1.6939 H   0  0  0  0  0  0  0  0  0  0  0  0
   18.6797    3.4363   -0.3103 H   0  0  0  0  0  0  0  0  0  0  0  0
   20.5945    2.1439    0.5170 H   0  0  0  0  0  0  0  0  0  0  0  0
   20.2523    0.1857    2.0004 H   0  0  0  0  0  0  0  0  0  0  0  0
   17.9472   -0.5180    2.5919 H   0  0  0  0  0  0  0  0  0  0  0  0
   16.0188    0.7123    1.7315 H   0  0  0  0  0  0  0  0  0  0  0  0
   14.8555    2.6555    2.0358 H   0  0  0  0  0  0  0  0  0  0  0  0
   12.8657    3.8347    1.3306 H   0  0  0  0  0  0  0  0  0  0  0  0
    9.3808    3.1543    2.3543 H   0  0  0  0  0  0  0  0  0  0  0  0
    7.4462    1.6953    2.7577 H   0  0  0  0  0  0  0  0  0  0  0  0
    3.5437   -0.4762    2.7295 H   0  0  0  0  0  0  0  0  0  0  0  0
  1  2  3  0  0  0  0
  2  3  1  0  0  0  0
  3  4  2  0  0  0  0
  3 34  1  0  0  0  0
  4  5  1  0  0  0  0
  4  6  1  0  0  0  0
  5 35  1  0  0  0  0
  5 36  1  0  0  0  0
  6  7  1  0  0  0  0
  6 33  1  0  0  0  0
  7  8  2  0  0  0  0
  7 32  1  0  0  0  0
  8  9  1  0  0  0  0
  8 37  1  0  0  0  0
  9 10  2  0  0  0  0
  9 38  1  0  0  0  0
 10 11  1  0  0  0  0
 10 31  1  0  0  0  0
 11 12  2  0  0  0  0
 11 13  1  0  0  0  0
 13 14  1  0  0  0  0
 13 18  1  0  0  0  0
 14 15  1  0  0  0  0
 14 39  1  0  0  0  0
 14 40  1  0  0  0  0
 15 16  1  0  0  0  0
 15 17  2  0  0  0  0
 16 41  1  0  0  0  0
 16 42  1  0  0  0  0
 18 19  1  0  0  0  0
 18 43  1  0  0  0  0
 18 44  1  0  0  0  0
 19 20  2  0  0  0  0
 19 30  1  0  0  0  0
 20 21  1  0  0  0  0
 20 45  1  0  0  0  0
 21 22  2  0  0  0  0
 21 46  1  0  0  0  0
 22 23  1  0  0  0  0
 22 29  1  0  0  0  0
 23 24  2  0  0  0  0
 23 28  1  0  0  0  0
 24 25  1  0  0  0  0
 24 47  1  0  0  0  0
 25 26  2  0  0  0  0
 25 48  1  0  0  0  0
 26 27  1  0  0  0  0
 26 49  1  0  0  0  0
 27 28  2  0  0  0  0
 27 50  1  0  0  0  0
 28 51  1  0  0  0  0
 29 30  2  0  0  0  0
 29 52  1  0  0  0  0
 30 53  1  0  0  0  0
 31 32  2  0  0  0  0
 31 54  1  0  0  0  0
 32 55  1  0  0  0  0
 33 34  2  0  0  0  0
 34 56  1  0  0  0  0
M  END
$$$$
