
 OpenBabel01122422493D

 47 50  0  0  0  0  0  0  0  0999 V2000
    0.9411    0.1059    0.1158 O   0  0  0  0  0  0  0  0  0  0  0  0
    2.1342   -0.1292   -0.0207 C   0  0  0  0  0  0  0  0  0  0  0  0
    2.7752   -0.5359   -1.1768 N   0  0  0  0  0  0  0  0  0  0  0  0
    2.1663   -0.5208   -2.4395 C   0  0  0  0  0  0  0  0  0  0  0  0
    2.7991   -1.1556   -3.4999 C   0  0  0  0  0  0  0  0  0  0  0  0
    2.2179   -1.0824   -4.7661 C   0  0  0  0  0  0  0  0  0  0  0  0
    1.0408   -0.3593   -4.9426 C   0  0  0  0  0  0  0  0  0  0  0  0
    0.4561    0.2339   -3.8314 C   0  0  0  0  0  0  0  0  0  0  0  0
   -0.8349    1.0162   -3.9361 C   0  0  0  0  0  0  0  0  0  0  0  0
   -0.6470    2.4924   -4.2138 C   0  0  0  0  0  0  0  0  0  0  0  0
   -1.1835    3.0712   -5.3725 C   0  0  0  0  0  0  0  0  0  0  0  0
   -0.9709    4.4222   -5.6550 C   0  0  0  0  0  0  0  0  0  0  0  0
   -0.2383    5.2145   -4.7734 C   0  0  0  0  0  0  0  0  0  0  0  0
    0.2632    4.6624   -3.5966 C   0  0  0  0  0  0  0  0  0  0  0  0
    0.0559    3.3105   -3.3151 C   0  0  0  0  0  0  0  0  0  0  0  0
    1.0141    0.1497   -2.6006 N   0  0  0  0  0  0  0  0  0  0  0  0
    3.0199    0.0248    1.2117 C   0  0  0  0  0  0  0  0  0  0  0  0
    2.4289    0.3995    2.3171 N   0  0  0  0  0  0  0  0  0  0  0  0
    3.1888    0.6183    3.4406 N   0  0  0  0  0  0  0  0  0  0  0  0
    2.4404    0.7848    4.6510 C   0  0  0  0  0  0  0  0  0  0  0  0
    1.1180    1.2730    4.6178 C   0  0  0  0  0  0  0  0  0  0  0  0
    0.3377    1.3496    5.7791 C   0  0  0  0  0  0  0  0  0  0  0  0
    0.8611    0.9420    7.0033 C   0  0  0  0  0  0  0  0  0  0  0  0
    2.1756    0.4947    7.0725 C   0  0  0  0  0  0  0  0  0  0  0  0
    2.9491    0.4247    5.9142 C   0  0  0  0  0  0  0  0  0  0  0  0
    4.1941   -0.0606    6.0477 F   0  0  0  0  0  0  0  0  0  0  0  0
    4.5673    0.5835    3.3976 C   0  0  0  0  0  0  0  0  0  0  0  0
    5.2926    0.2015    2.3511 C   0  0  0  0  0  0  0  0  0  0  0  0
    4.5164   -0.2016    1.1772 C   0  0  0  0  0  0  0  0  0  0  0  0
    5.0461   -0.6897    0.1842 O   0  0  0  0  0  0  0  0  0  0  0  0
    3.7473   -0.8317   -1.1262 H   0  0  0  0  0  0  0  0  0  0  0  0
    3.7153   -1.7182   -3.3587 H   0  0  0  0  0  0  0  0  0  0  0  0
    2.6804   -1.5850   -5.6114 H   0  0  0  0  0  0  0  0  0  0  0  0
    0.5892   -0.2707   -5.9250 H   0  0  0  0  0  0  0  0  0  0  0  0
   -1.4042    0.9015   -3.0043 H   0  0  0  0  0  0  0  0  0  0  0  0
   -1.4573    0.5609   -4.7168 H   0  0  0  0  0  0  0  0  0  0  0  0
   -1.7678    2.4729   -6.0670 H   0  0  0  0  0  0  0  0  0  0  0  0
   -1.3727    4.8549   -6.5672 H   0  0  0  0  0  0  0  0  0  0  0  0
   -0.0608    6.2619   -5.0016 H   0  0  0  0  0  0  0  0  0  0  0  0
    0.8228    5.2810   -2.8999 H   0  0  0  0  0  0  0  0  0  0  0  0
    0.4561    2.8905   -2.3924 H   0  0  0  0  0  0  0  0  0  0  0  0
    0.6811    1.5950    3.6734 H   0  0  0  0  0  0  0  0  0  0  0  0
   -0.6861    1.7118    5.7184 H   0  0  0  0  0  0  0  0  0  0  0  0
    0.2453    0.9639    7.8984 H   0  0  0  0  0  0  0  0  0  0  0  0
    2.6054    0.1727    8.0157 H   0  0  0  0  0  0  0  0  0  0  0  0
    5.0663    0.9227    4.3029 H   0  0  0  0  0  0  0  0  0  0  0  0
    6.3716    0.1601    2.3366 H   0  0  0  0  0  0  0  0  0  0  0  0
  1  2  2  0  0  0  0
  2  3  1  0  0  0  0
  2 17  1  0  0  0  0
  3  4  1  0  0  0  0
  3 31  1  0  0  0  0
  4  5  2  0  0  0  0
  4 16  1  0  0  0  0
  5  6  1  0  0  0  0
  5 32  1  0  0  0  0
  6  7  2  0  0  0  0
  6 33  1  0  0  0  0
  7  8  1  0  0  0  0
  7 34  1  0  0  0  0
  8  9  1  0  0  0  0
  8 16  2  0  0  0  0
  9 10  1  0  0  0  0
  9 35  1  0  0  0  0
  9 36  1  0  0  0  0
 10 11  2  0  0  0  0
 10 15  1  0  0  0  0
 11 12  1  0  0  0  0
 11 37  1  0  0  0  0
 12 13  2  0  0  0  0
 12 38  1  0  0  0  0
 13 14  1  0  0  0  0
 13 39  1  0  0  0  0
 14 15  2  0  0  0  0
 14 40  1  0  0  0  0
 15 41  1  0  0  0  0
 17 18  2  0  0  0  0
 17 29  1  0  0  0  0
 18 19  1  0  0  0  0
 19 20  1  0  0  0  0
 19 27  1  0  0  0  0
 20 21  2  0  0  0  0
 20 25  1  0  0  0  0
 21 22  1  0  0  0  0
 21 42  1  0  0  0  0
 22 23  2  0  0  0  0
 22 43  1  0  0  0  0
 23 24  1  0  0  0  0
 23 44  1  0  0  0  0
 24 25  2  0  0  0  0
 24 45  1  0  0  0  0
 25 26  1  0  0  0  0
 27 28  2  0  0  0  0
 27 46  1  0  0  0  0
 28 29  1  0  0  0  0
 28 47  1  0  0  0  0
 29 30  2  0  0  0  0
M  END
$$$$
