
 OpenBabel01122422493D

 41 44  0  0  0  0  0  0  0  0999 V2000
    3.4396   -1.5482    2.3535 O   0  0  0  0  0  0  0  0  0  0  0  0
    3.3992   -0.9772    1.2652 C   0  0  0  0  0  0  0  0  0  0  0  0
    2.8374    0.2778    1.0637 N   0  0  0  0  0  0  0  0  0  0  0  0
    2.1756    0.9327    2.1349 C   0  0  0  0  0  0  0  0  0  0  0  0
    1.1054    0.2533    2.7627 C   0  0  0  0  0  0  0  0  0  0  0  0
    0.7089   -0.9482    2.3105 F   0  0  0  0  0  0  0  0  0  0  0  0
    0.3759    0.8234    3.7947 C   0  0  0  0  0  0  0  0  0  0  0  0
    0.7319    2.0828    4.2295 C   0  0  0  0  0  0  0  0  0  0  0  0
    0.0457    2.6565    5.2262 F   0  0  0  0  0  0  0  0  0  0  0  0
    1.7894    2.7747    3.6399 C   0  0  0  0  0  0  0  0  0  0  0  0
    2.5298    2.2368    2.5583 C   0  0  0  0  0  0  0  0  0  0  0  0
    3.6486    3.0371    1.9886 C   0  0  0  0  0  0  0  0  0  0  0  0
    4.8711    2.4597    1.6009 C   0  0  0  0  0  0  0  0  0  0  0  0
    5.8993    3.2242    1.0379 C   0  0  0  0  0  0  0  0  0  0  0  0
    5.7505    4.5995    0.8977 C   0  0  0  0  0  0  0  0  0  0  0  0
    4.5750    5.2085    1.3200 C   0  0  0  0  0  0  0  0  0  0  0  0
    3.5358    4.4350    1.8471 C   0  0  0  0  0  0  0  0  0  0  0  0
    4.0493   -1.6215    0.0826 C   0  0  0  0  0  0  0  0  0  0  0  0
    4.5115   -2.9296    0.2331 C   0  0  0  0  0  0  0  0  0  0  0  0
    5.0230   -3.5940   -0.8739 C   0  0  0  0  0  0  0  0  0  0  0  0
    5.0560   -2.9321   -2.0949 C   0  0  0  0  0  0  0  0  0  0  0  0
    5.5110   -3.6011   -3.3111 C   0  0  0  0  0  0  0  0  0  0  0  0
    5.5091   -2.9316   -4.4697 C   0  0  0  0  0  0  0  0  0  0  0  0
    5.0827   -1.5105   -4.5338 C   0  0  0  0  0  0  0  0  0  0  0  0
    5.1139   -0.9026   -5.5943 O   0  0  0  0  0  0  0  0  0  0  0  0
    4.6589   -0.9369   -3.3665 N   0  0  0  0  0  0  0  0  0  0  0  0
    4.6075   -1.6025   -2.1445 C   0  0  0  0  0  0  0  0  0  0  0  0
    4.1105   -0.9221   -1.0836 N   0  0  0  0  0  0  0  0  0  0  0  0
    3.2161    0.8211    0.2942 H   0  0  0  0  0  0  0  0  0  0  0  0
   -0.4572    0.2937    4.2398 H   0  0  0  0  0  0  0  0  0  0  0  0
    2.0374    3.7472    4.0592 H   0  0  0  0  0  0  0  0  0  0  0  0
    5.0558    1.3979    1.7457 H   0  0  0  0  0  0  0  0  0  0  0  0
    6.8211    2.7427    0.7209 H   0  0  0  0  0  0  0  0  0  0  0  0
    6.5520    5.1960    0.4707 H   0  0  0  0  0  0  0  0  0  0  0  0
    4.4598    6.2864    1.2378 H   0  0  0  0  0  0  0  0  0  0  0  0
    2.6268    4.9509    2.1503 H   0  0  0  0  0  0  0  0  0  0  0  0
    4.4448   -3.4341    1.1931 H   0  0  0  0  0  0  0  0  0  0  0  0
    5.3634   -4.6210   -0.7752 H   0  0  0  0  0  0  0  0  0  0  0  0
    5.8197   -4.6403   -3.2635 H   0  0  0  0  0  0  0  0  0  0  0  0
    5.8124   -3.3871   -5.4047 H   0  0  0  0  0  0  0  0  0  0  0  0
    4.3593    0.0258   -3.3953 H   0  0  0  0  0  0  0  0  0  0  0  0
  1  2  2  0  0  0  0
  2  3  1  0  0  0  0
  2 18  1  0  0  0  0
  3  4  1  0  0  0  0
  3 29  1  0  0  0  0
  4  5  2  0  0  0  0
  4 11  1  0  0  0  0
  5  6  1  0  0  0  0
  5  7  1  0  0  0  0
  7  8  2  0  0  0  0
  7 30  1  0  0  0  0
  8  9  1  0  0  0  0
  8 10  1  0  0  0  0
 10 11  2  0  0  0  0
 10 31  1  0  0  0  0
 11 12  1  0  0  0  0
 12 13  2  0  0  0  0
 12 17  1  0  0  0  0
 13 14  1  0  0  0  0
 13 32  1  0  0  0  0
 14 15  2  0  0  0  0
 14 33  1  0  0  0  0
 15 16  1  0  0  0  0
 15 34  1  0  0  0  0
 16 17  2  0  0  0  0
 16 35  1  0  0  0  0
 17 36  1  0  0  0  0
 18 19  2  0  0  0  0
 18 28  1  0  0  0  0
 19 20  1  0  0  0  0
 19 37  1  0  0  0  0
 20 21  2  0  0  0  0
 20 38  1  0  0  0  0
 21 22  1  0  0  0  0
 21 27  1  0  0  0  0
 22 23  2  0  0  0  0
 22 39  1  0  0  0  0
 23 24  1  0  0  0  0
 23 40  1  0  0  0  0
 24 25  2  0  0  0  0
 24 26  1  0  0  0  0
 26 27  1  0  0  0  0
 26 41  1  0  0  0  0
 27 28  2  0  0  0  0
M  END
$$$$
