
 OpenBabel01122422493D

 48 51  0  0  0  0  0  0  0  0999 V2000
    0.9775   -0.1290   -0.0801 O   0  0  0  0  0  0  0  0  0  0  0  0
    2.2048   -0.0633   -0.0887 C   0  0  0  0  0  0  0  0  0  0  0  0
    2.9139    0.6302   -1.2499 C   0  0  0  0  0  0  0  0  0  0  0  0
    3.1972   -0.3785   -2.2528 N   0  0  0  0  0  0  0  0  0  0  0  0
    2.2727   -0.6909   -3.2170 C   0  0  0  0  0  0  0  0  0  0  0  0
    2.3939   -1.6527   -4.0702 N   0  0  0  0  0  0  0  0  0  0  0  0
    3.5223   -2.4216   -3.9690 C   0  0  0  0  0  0  0  0  0  0  0  0
    3.6557   -3.6033   -4.8349 C   0  0  0  0  0  0  0  0  0  0  0  0
    3.1606   -4.8403   -4.3985 C   0  0  0  0  0  0  0  0  0  0  0  0
    3.3988   -5.9970   -5.1420 C   0  0  0  0  0  0  0  0  0  0  0  0
    4.1242   -5.9226   -6.3300 C   0  0  0  0  0  0  0  0  0  0  0  0
    4.5917   -4.6903   -6.7880 C   0  0  0  0  0  0  0  0  0  0  0  0
    4.3566   -3.5316   -6.0444 C   0  0  0  0  0  0  0  0  0  0  0  0
    4.5063   -2.2137   -3.0829 C   0  0  0  0  0  0  0  0  0  0  0  0
    4.3439   -1.1252   -2.1172 C   0  0  0  0  0  0  0  0  0  0  0  0
    5.1661   -0.9580   -1.2183 O   0  0  0  0  0  0  0  0  0  0  0  0
    3.0615   -0.6483    0.8393 N   0  0  0  0  0  0  0  0  0  0  0  0
    2.7078   -1.3414    1.9831 C   0  0  0  0  0  0  0  0  0  0  0  0
    1.4488   -1.5745    2.3704 C   0  0  0  0  0  0  0  0  0  0  0  0
    1.1226   -2.2258    3.6674 C   0  0  0  0  0  0  0  0  0  0  0  0
   -0.0750   -2.3012    3.9347 O   0  0  0  0  0  0  0  0  0  0  0  0
    2.2136   -2.6239    4.4742 N   0  0  0  0  0  0  0  0  0  0  0  0
    1.9685   -3.1581    5.8080 C   0  0  0  0  0  0  0  0  0  0  0  0
    0.7312   -3.7111    6.1810 C   0  0  0  0  0  0  0  0  0  0  0  0
    0.4737   -4.1423    7.4886 C   0  0  0  0  0  0  0  0  0  0  0  0
    1.4615   -4.0552    8.4589 C   0  0  0  0  0  0  0  0  0  0  0  0
    2.7085   -3.5471    8.1159 C   0  0  0  0  0  0  0  0  0  0  0  0
    2.9586   -3.1051    6.8080 C   0  0  0  0  0  0  0  0  0  0  0  0
    3.5117   -2.4403    3.9894 C   0  0  0  0  0  0  0  0  0  0  0  0
    3.7750   -1.8445    2.8177 C   0  0  0  0  0  0  0  0  0  0  0  0
    3.8313    1.1153   -0.9020 H   0  0  0  0  0  0  0  0  0  0  0  0
    2.2458    1.3980   -1.6559 H   0  0  0  0  0  0  0  0  0  0  0  0
    1.3801   -0.0408   -3.2343 H   0  0  0  0  0  0  0  0  0  0  0  0
    2.6005   -4.9075   -3.4683 H   0  0  0  0  0  0  0  0  0  0  0  0
    3.0269   -6.9552   -4.7885 H   0  0  0  0  0  0  0  0  0  0  0  0
    4.3237   -6.8259   -6.9007 H   0  0  0  0  0  0  0  0  0  0  0  0
    5.1487   -4.6335   -7.7195 H   0  0  0  0  0  0  0  0  0  0  0  0
    4.7323   -2.5770   -6.4043 H   0  0  0  0  0  0  0  0  0  0  0  0
    5.3826   -2.8400   -2.9965 H   0  0  0  0  0  0  0  0  0  0  0  0
    4.0587   -0.5810    0.6334 H   0  0  0  0  0  0  0  0  0  0  0  0
    0.5740   -1.2712    1.8123 H   0  0  0  0  0  0  0  0  0  0  0  0
   -0.0772   -3.8398    5.4678 H   0  0  0  0  0  0  0  0  0  0  0  0
   -0.5079   -4.5380    7.7385 H   0  0  0  0  0  0  0  0  0  0  0  0
    1.2573   -4.3778    9.4761 H   0  0  0  0  0  0  0  0  0  0  0  0
    3.4862   -3.4716    8.8717 H   0  0  0  0  0  0  0  0  0  0  0  0
    3.9341   -2.6680    6.6228 H   0  0  0  0  0  0  0  0  0  0  0  0
    4.3330   -2.8305    4.5790 H   0  0  0  0  0  0  0  0  0  0  0  0
    4.8041   -1.7516    2.4818 H   0  0  0  0  0  0  0  0  0  0  0  0
  1  2  2  0  0  0  0
  2  3  1  0  0  0  0
  2 17  1  0  0  0  0
  3  4  1  0  0  0  0
  3 31  1  0  0  0  0
  3 32  1  0  0  0  0
  4  5  1  0  0  0  0
  4 15  1  0  0  0  0
  5  6  2  0  0  0  0
  5 33  1  0  0  0  0
  6  7  1  0  0  0  0
  7  8  1  0  0  0  0
  7 14  2  0  0  0  0
  8  9  2  0  0  0  0
  8 13  1  0  0  0  0
  9 10  1  0  0  0  0
  9 34  1  0  0  0  0
 10 11  2  0  0  0  0
 10 35  1  0  0  0  0
 11 12  1  0  0  0  0
 11 36  1  0  0  0  0
 12 13  2  0  0  0  0
 12 37  1  0  0  0  0
 13 38  1  0  0  0  0
 14 15  1  0  0  0  0
 14 39  1  0  0  0  0
 15 16  2  0  0  0  0
 17 18  1  0  0  0  0
 17 40  1  0  0  0  0
 18 19  2  0  0  0  0
 18 30  1  0  0  0  0
 19 20  1  0  0  0  0
 19 41  1  0  0  0  0
 20 21  2  0  0  0  0
 20 22  1  0  0  0  0
 22 23  1  0  0  0  0
 22 29  1  0  0  0  0
 23 24  2  0  0  0  0
 23 28  1  0  0  0  0
 24 25  1  0  0  0  0
 24 42  1  0  0  0  0
 25 26  2  0  0  0  0
 25 43  1  0  0  0  0
 26 27  1  0  0  0  0
 26 44  1  0  0  0  0
 27 28  2  0  0  0  0
 27 45  1  0  0  0  0
 28 46  1  0  0  0  0
 29 30  2  0  0  0  0
 29 47  1  0  0  0  0
 30 48  1  0  0  0  0
M  END
$$$$
