
 OpenBabel01122422463D

 51 54  0  0  0  0  0  0  0  0999 V2000
   -0.0740   -5.9576   -3.1587 C   0  0  0  0  0  0  0  0  0  0  0  0
   -0.4616   -5.5750   -1.7608 C   0  0  0  0  0  0  0  0  0  0  0  0
   -0.2896   -6.4632   -0.6951 C   0  0  0  0  0  0  0  0  0  0  0  0
   -0.6497   -6.0861    0.5985 C   0  0  0  0  0  0  0  0  0  0  0  0
   -1.1690   -4.8126    0.8410 C   0  0  0  0  0  0  0  0  0  0  0  0
   -1.3292   -3.8976   -0.2093 C   0  0  0  0  0  0  0  0  0  0  0  0
   -1.7959   -2.4845    0.0518 C   0  0  0  0  0  0  0  0  0  0  0  0
   -3.2434   -2.2892   -0.0222 N   0  0  0  0  0  0  0  0  0  0  0  0
   -4.0082   -2.4914    1.1143 C   0  0  0  0  0  0  0  0  0  0  0  0
   -5.3108   -2.1960    1.1358 C   0  0  0  0  0  0  0  0  0  0  0  0
   -5.9343   -1.6103   -0.0229 C   0  0  0  0  0  0  0  0  0  0  0  0
   -5.2414   -1.3936   -1.1491 C   0  0  0  0  0  0  0  0  0  0  0  0
   -5.9783   -0.7256   -2.2750 C   0  0  0  0  0  0  0  0  0  0  0  0
   -7.0120   -0.0899   -2.0866 O   0  0  0  0  0  0  0  0  0  0  0  0
   -5.4334   -0.9832   -3.4988 N   0  0  0  0  0  0  0  0  0  0  0  0
   -5.8128   -0.4949   -4.7509 C   0  0  0  0  0  0  0  0  0  0  0  0
   -5.4271   -1.3289   -5.8054 C   0  0  0  0  0  0  0  0  0  0  0  0
   -5.3905   -0.8387   -7.0864 C   0  0  0  0  0  0  0  0  0  0  0  0
   -5.7934    0.4692   -7.2879 C   0  0  0  0  0  0  0  0  0  0  0  0
   -5.7068    1.0036   -8.6403 C   0  0  0  0  0  0  0  0  0  0  0  0
   -4.6941    0.8762   -9.3139 O   0  0  0  0  0  0  0  0  0  0  0  0
   -6.9455    1.4255   -9.0835 N   0  0  0  0  0  0  0  0  0  0  0  0
   -7.4478    0.5781  -10.1448 C   0  0  0  0  0  0  0  0  0  0  0  0
   -7.8007    2.0680   -8.1926 C   0  0  0  0  0  0  0  0  0  0  0  0
   -7.5305    2.1267   -6.8689 C   0  0  0  0  0  0  0  0  0  0  0  0
   -6.5378    1.1660   -6.3348 C   0  0  0  0  0  0  0  0  0  0  0  0
   -6.4609    0.7270   -5.0072 C   0  0  0  0  0  0  0  0  0  0  0  0
   -3.8009   -1.8149   -1.2100 C   0  0  0  0  0  0  0  0  0  0  0  0
   -3.1834   -1.7124   -2.2811 O   0  0  0  0  0  0  0  0  0  0  0  0
   -0.9874   -4.2991   -1.5100 C   0  0  0  0  0  0  0  0  0  0  0  0
    0.3109   -6.9816   -3.2053 H   0  0  0  0  0  0  0  0  0  0  0  0
    0.7083   -5.2876   -3.5302 H   0  0  0  0  0  0  0  0  0  0  0  0
   -0.9445   -5.8953   -3.8192 H   0  0  0  0  0  0  0  0  0  0  0  0
    0.1326   -7.4516   -0.8629 H   0  0  0  0  0  0  0  0  0  0  0  0
   -0.5075   -6.7822    1.4217 H   0  0  0  0  0  0  0  0  0  0  0  0
   -1.4193   -4.5341    1.8616 H   0  0  0  0  0  0  0  0  0  0  0  0
   -1.3027   -1.8049   -0.6564 H   0  0  0  0  0  0  0  0  0  0  0  0
   -1.4492   -2.1605    1.0427 H   0  0  0  0  0  0  0  0  0  0  0  0
   -3.5111   -2.8978    1.9892 H   0  0  0  0  0  0  0  0  0  0  0  0
   -5.9131   -2.3674    2.0193 H   0  0  0  0  0  0  0  0  0  0  0  0
   -6.9795   -1.3234    0.0727 H   0  0  0  0  0  0  0  0  0  0  0  0
   -4.6150   -1.5953   -3.5151 H   0  0  0  0  0  0  0  0  0  0  0  0
   -5.1551   -2.3644   -5.6236 H   0  0  0  0  0  0  0  0  0  0  0  0
   -5.1076   -1.4659   -7.9254 H   0  0  0  0  0  0  0  0  0  0  0  0
   -7.1436   -0.4588   -9.9201 H   0  0  0  0  0  0  0  0  0  0  0  0
   -6.9783    0.8463  -11.0932 H   0  0  0  0  0  0  0  0  0  0  0  0
   -8.5359    0.5952  -10.2051 H   0  0  0  0  0  0  0  0  0  0  0  0
   -8.6798    2.5320   -8.6303 H   0  0  0  0  0  0  0  0  0  0  0  0
   -8.1801    2.6559   -6.1808 H   0  0  0  0  0  0  0  0  0  0  0  0
   -6.8764    1.3258   -4.2014 H   0  0  0  0  0  0  0  0  0  0  0  0
   -1.1082   -3.6010   -2.3378 H   0  0  0  0  0  0  0  0  0  0  0  0
  1  2  1  0  0  0  0
  1 31  1  0  0  0  0
  1 32  1  0  0  0  0
  1 33  1  0  0  0  0
  2  3  2  0  0  0  0
  2 30  1  0  0  0  0
  3  4  1  0  0  0  0
  3 34  1  0  0  0  0
  4  5  2  0  0  0  0
  4 35  1  0  0  0  0
  5  6  1  0  0  0  0
  5 36  1  0  0  0  0
  6  7  1  0  0  0  0
  6 30  2  0  0  0  0
  7  8  1  0  0  0  0
  7 37  1  0  0  0  0
  7 38  1  0  0  0  0
  8  9  1  0  0  0  0
  8 28  1  0  0  0  0
  9 10  2  0  0  0  0
  9 39  1  0  0  0  0
 10 11  1  0  0  0  0
 10 40  1  0  0  0  0
 11 12  2  0  0  0  0
 11 41  1  0  0  0  0
 12 13  1  0  0  0  0
 12 28  1  0  0  0  0
 13 14  2  0  0  0  0
 13 15  1  0  0  0  0
 15 16  1  0  0  0  0
 15 42  1  0  0  0  0
 16 17  2  0  0  0  0
 16 27  1  0  0  0  0
 17 18  1  0  0  0  0
 17 43  1  0  0  0  0
 18 19  2  0  0  0  0
 18 44  1  0  0  0  0
 19 20  1  0  0  0  0
 19 26  1  0  0  0  0
 20 21  2  0  0  0  0
 20 22  1  0  0  0  0
 22 23  1  0  0  0  0
 22 24  1  0  0  0  0
 23 45  1  0  0  0  0
 23 46  1  0  0  0  0
 23 47  1  0  0  0  0
 24 25  2  0  0  0  0
 24 48  1  0  0  0  0
 25 26  1  0  0  0  0
 25 49  1  0  0  0  0
 26 27  2  0  0  0  0
 27 50  1  0  0  0  0
 28 29  2  0  0  0  0
 30 51  1  0  0  0  0
M  END
$$$$
