
 OpenBabel01122422493D

 37 40  0  0  0  0  0  0  0  0999 V2000
    0.9651    0.0601   -0.1899 O   0  0  0  0  0  0  0  0  0  0  0  0
    2.1844    0.1173   -0.0644 C   0  0  0  0  0  0  0  0  0  0  0  0
    2.8553   -0.0764    1.1391 N   0  0  0  0  0  0  0  0  0  0  0  0
    2.2142   -0.4236    2.3557 C   0  0  0  0  0  0  0  0  0  0  0  0
    0.9089   -0.9398    2.3827 C   0  0  0  0  0  0  0  0  0  0  0  0
    0.2667   -1.2498    3.5785 C   0  0  0  0  0  0  0  0  0  0  0  0
    0.9278   -1.0499    4.7770 C   0  0  0  0  0  0  0  0  0  0  0  0
    0.2394   -1.3726    5.9208 O   0  0  0  0  0  0  0  0  0  0  0  0
    0.8754   -1.1705    7.1191 C   0  0  0  0  0  0  0  0  0  0  0  0
    2.1089   -0.6835    7.2748 C   0  0  0  0  0  0  0  0  0  0  0  0
    2.8872   -0.3251    6.0739 C   0  0  0  0  0  0  0  0  0  0  0  0
    4.0165    0.1362    6.1665 O   0  0  0  0  0  0  0  0  0  0  0  0
    2.2308   -0.5491    4.7746 C   0  0  0  0  0  0  0  0  0  0  0  0
    2.8879   -0.2446    3.5690 C   0  0  0  0  0  0  0  0  0  0  0  0
    2.9812    0.4472   -1.2134 C   0  0  0  0  0  0  0  0  0  0  0  0
    2.5409    0.8374   -2.4515 C   0  0  0  0  0  0  0  0  0  0  0  0
    3.7047    1.0154   -3.2276 C   0  0  0  0  0  0  0  0  0  0  0  0
    3.7392    1.4400   -4.6204 C   0  0  0  0  0  0  0  0  0  0  0  0
    2.7620    2.3200   -5.1092 C   0  0  0  0  0  0  0  0  0  0  0  0
    1.8271    2.8291   -4.2917 F   0  0  0  0  0  0  0  0  0  0  0  0
    2.7116    2.6909   -6.4491 C   0  0  0  0  0  0  0  0  0  0  0  0
    3.6552    2.1749   -7.3201 C   0  0  0  0  0  0  0  0  0  0  0  0
    3.6041    2.5088   -8.6153 F   0  0  0  0  0  0  0  0  0  0  0  0
    4.6440    1.3091   -6.8730 C   0  0  0  0  0  0  0  0  0  0  0  0
    4.6817    0.9465   -5.5261 C   0  0  0  0  0  0  0  0  0  0  0  0
    5.6222    0.0730   -5.1388 F   0  0  0  0  0  0  0  0  0  0  0  0
    4.7951    0.7330   -2.4939 N   0  0  0  0  0  0  0  0  0  0  0  0
    4.3358    0.3814   -1.2269 O   0  0  0  0  0  0  0  0  0  0  0  0
    3.8407    0.1604    1.1678 H   0  0  0  0  0  0  0  0  0  0  0  0
    0.3451   -1.1327    1.4757 H   0  0  0  0  0  0  0  0  0  0  0  0
   -0.7473   -1.6381    3.5557 H   0  0  0  0  0  0  0  0  0  0  0  0
    0.2329   -1.4627    7.9400 H   0  0  0  0  0  0  0  0  0  0  0  0
    2.5679   -0.5322    8.2407 H   0  0  0  0  0  0  0  0  0  0  0  0
    3.9011    0.1480    3.6011 H   0  0  0  0  0  0  0  0  0  0  0  0
    1.5072    0.9790   -2.7345 H   0  0  0  0  0  0  0  0  0  0  0  0
    1.9382    3.3639   -6.8004 H   0  0  0  0  0  0  0  0  0  0  0  0
    5.3702    0.9029   -7.5680 H   0  0  0  0  0  0  0  0  0  0  0  0
  1  2  2  0  0  0  0
  2  3  1  0  0  0  0
  2 15  1  0  0  0  0
  3  4  1  0  0  0  0
  3 29  1  0  0  0  0
  4  5  2  0  0  0  0
  4 14  1  0  0  0  0
  5  6  1  0  0  0  0
  5 30  1  0  0  0  0
  6  7  2  0  0  0  0
  6 31  1  0  0  0  0
  7  8  1  0  0  0  0
  7 13  1  0  0  0  0
  8  9  1  0  0  0  0
  9 10  2  0  0  0  0
  9 32  1  0  0  0  0
 10 11  1  0  0  0  0
 10 33  1  0  0  0  0
 11 12  2  0  0  0  0
 11 13  1  0  0  0  0
 13 14  2  0  0  0  0
 14 34  1  0  0  0  0
 15 16  2  0  0  0  0
 15 28  1  0  0  0  0
 16 17  1  0  0  0  0
 16 35  1  0  0  0  0
 17 18  1  0  0  0  0
 17 27  2  0  0  0  0
 18 19  2  0  0  0  0
 18 25  1  0  0  0  0
 19 20  1  0  0  0  0
 19 21  1  0  0  0  0
 21 22  2  0  0  0  0
 21 36  1  0  0  0  0
 22 23  1  0  0  0  0
 22 24  1  0  0  0  0
 24 25  2  0  0  0  0
 24 37  1  0  0  0  0
 25 26  1  0  0  0  0
 27 28  1  0  0  0  0
M  END
$$$$
