
 OpenBabel01122422463D

 54 57  0  0  0  0  0  0  0  0999 V2000
    6.8652    7.9439    5.7432 C   0  0  0  0  0  0  0  0  0  0  0  0
    7.4162    6.5589    5.4655 C   0  0  0  0  0  0  0  0  0  0  0  0
    6.8551    6.0780    4.2374 O   0  0  0  0  0  0  0  0  0  0  0  0
    7.4122    4.8758    3.8592 C   0  0  0  0  0  0  0  0  0  0  0  0
    6.6981    4.0549    3.0075 C   0  0  0  0  0  0  0  0  0  0  0  0
    7.2574    2.8289    2.6400 C   0  0  0  0  0  0  0  0  0  0  0  0
    8.5115    2.5020    3.1391 C   0  0  0  0  0  0  0  0  0  0  0  0
    9.1231    1.2438    2.8451 N   0  0  0  0  0  0  0  0  0  0  0  0
    8.5216    0.3450    2.0164 N   0  0  0  0  0  0  0  0  0  0  0  0
    9.3455   -0.7030    2.0045 C   0  0  0  0  0  0  0  0  0  0  0  0
   10.5165   -0.4997    2.7616 C   0  0  0  0  0  0  0  0  0  0  0  0
   11.5989   -1.4504    2.9597 C   0  0  0  0  0  0  0  0  0  0  0  0
   11.4044   -2.6586    2.9279 O   0  0  0  0  0  0  0  0  0  0  0  0
   12.8408   -0.8906    3.1494 N   0  0  0  0  0  0  0  0  0  0  0  0
   14.0226   -1.6816    3.4520 C   0  0  0  0  0  0  0  0  0  0  0  0
   14.8237   -2.0427    2.2174 C   0  0  0  0  0  0  0  0  0  0  0  0
   14.2524   -2.8332    1.2353 C   0  0  0  0  0  0  0  0  0  0  0  0
   14.9263   -3.0006    0.0301 C   0  0  0  0  0  0  0  0  0  0  0  0
   14.3793   -3.6375   -1.0638 O   0  0  0  0  0  0  0  0  0  0  0  0
   13.0188   -3.5313   -1.2790 C   0  0  0  0  0  0  0  0  0  0  0  0
   12.2702   -2.3767   -1.0053 C   0  0  0  0  0  0  0  0  0  0  0  0
   10.8841   -2.3783   -1.1741 C   0  0  0  0  0  0  0  0  0  0  0  0
   10.2508   -3.5133   -1.6734 C   0  0  0  0  0  0  0  0  0  0  0  0
   11.0115   -4.6263   -2.0180 C   0  0  0  0  0  0  0  0  0  0  0  0
   10.4025   -5.7010   -2.5361 F   0  0  0  0  0  0  0  0  0  0  0  0
   12.3892   -4.6464   -1.8281 C   0  0  0  0  0  0  0  0  0  0  0  0
   16.2242   -2.5275   -0.0969 C   0  0  0  0  0  0  0  0  0  0  0  0
   16.7527   -1.8089    0.9601 C   0  0  0  0  0  0  0  0  0  0  0  0
   16.0710   -1.5231    2.0933 N   0  0  0  0  0  0  0  0  0  0  0  0
   10.3310    0.7485    3.3420 C   0  0  0  0  0  0  0  0  0  0  0  0
   11.1380    1.4604    4.3745 C   0  0  0  0  0  0  0  0  0  0  0  0
    9.1872    3.3587    3.9377 N   0  0  0  0  0  0  0  0  0  0  0  0
    8.6394    4.5464    4.3027 N   0  0  0  0  0  0  0  0  0  0  0  0
    7.2081    8.3063    6.7169 H   0  0  0  0  0  0  0  0  0  0  0  0
    5.7714    7.9414    5.7266 H   0  0  0  0  0  0  0  0  0  0  0  0
    7.2001    8.6459    4.9725 H   0  0  0  0  0  0  0  0  0  0  0  0
    7.1332    5.8818    6.2810 H   0  0  0  0  0  0  0  0  0  0  0  0
    8.5093    6.6355    5.4142 H   0  0  0  0  0  0  0  0  0  0  0  0
    5.7157    4.3497    2.6556 H   0  0  0  0  0  0  0  0  0  0  0  0
    6.7044    2.1501    1.9970 H   0  0  0  0  0  0  0  0  0  0  0  0
    9.0682   -1.5834    1.4358 H   0  0  0  0  0  0  0  0  0  0  0  0
   12.9733    0.0923    2.9653 H   0  0  0  0  0  0  0  0  0  0  0  0
   13.7376   -2.5943    3.9863 H   0  0  0  0  0  0  0  0  0  0  0  0
   14.6363   -1.0711    4.1238 H   0  0  0  0  0  0  0  0  0  0  0  0
   13.2688   -3.2630    1.3890 H   0  0  0  0  0  0  0  0  0  0  0  0
   12.7498   -1.4764   -0.6296 H   0  0  0  0  0  0  0  0  0  0  0  0
   10.3031   -1.4976   -0.9137 H   0  0  0  0  0  0  0  0  0  0  0  0
    9.1737   -3.5353   -1.8050 H   0  0  0  0  0  0  0  0  0  0  0  0
   12.9554   -5.5324   -2.0937 H   0  0  0  0  0  0  0  0  0  0  0  0
   16.8028   -2.7020   -0.9968 H   0  0  0  0  0  0  0  0  0  0  0  0
   17.7677   -1.4209    0.9200 H   0  0  0  0  0  0  0  0  0  0  0  0
   11.9462    0.8407    4.7694 H   0  0  0  0  0  0  0  0  0  0  0  0
   10.5215    1.7196    5.2412 H   0  0  0  0  0  0  0  0  0  0  0  0
   11.5905    2.3648    3.9564 H   0  0  0  0  0  0  0  0  0  0  0  0
  1  2  1  0  0  0  0
  1 34  1  0  0  0  0
  1 35  1  0  0  0  0
  1 36  1  0  0  0  0
  2  3  1  0  0  0  0
  2 37  1  0  0  0  0
  2 38  1  0  0  0  0
  3  4  1  0  0  0  0
  4  5  2  0  0  0  0
  4 33  1  0  0  0  0
  5  6  1  0  0  0  0
  5 39  1  0  0  0  0
  6  7  2  0  0  0  0
  6 40  1  0  0  0  0
  7  8  1  0  0  0  0
  7 32  1  0  0  0  0
  8  9  1  0  0  0  0
  8 30  1  0  0  0  0
  9 10  2  0  0  0  0
 10 11  1  0  0  0  0
 10 41  1  0  0  0  0
 11 12  1  0  0  0  0
 11 30  2  0  0  0  0
 12 13  2  0  0  0  0
 12 14  1  0  0  0  0
 14 15  1  0  0  0  0
 14 42  1  0  0  0  0
 15 16  1  0  0  0  0
 15 43  1  0  0  0  0
 15 44  1  0  0  0  0
 16 17  2  0  0  0  0
 16 29  1  0  0  0  0
 17 18  1  0  0  0  0
 17 45  1  0  0  0  0
 18 19  1  0  0  0  0
 18 27  2  0  0  0  0
 19 20  1  0  0  0  0
 20 21  2  0  0  0  0
 20 26  1  0  0  0  0
 21 22  1  0  0  0  0
 21 46  1  0  0  0  0
 22 23  2  0  0  0  0
 22 47  1  0  0  0  0
 23 24  1  0  0  0  0
 23 48  1  0  0  0  0
 24 25  1  0  0  0  0
 24 26  2  0  0  0  0
 26 49  1  0  0  0  0
 27 28  1  0  0  0  0
 27 50  1  0  0  0  0
 28 29  2  0  0  0  0
 28 51  1  0  0  0  0
 30 31  1  0  0  0  0
 31 52  1  0  0  0  0
 31 53  1  0  0  0  0
 31 54  1  0  0  0  0
 32 33  2  0  0  0  0
M  END
$$$$
