
 OpenBabel01122422493D

 46 49  0  0  0  0  0  0  0  0999 V2000
    1.2007   -0.0749    0.7037 O   0  0  0  0  0  0  0  0  0  0  0  0
    2.3591   -0.0399    0.2666 C   0  0  0  0  0  0  0  0  0  0  0  0
    3.0598    1.3136    0.1719 C   0  0  0  0  0  0  0  0  0  0  0  0
    2.5927    2.3191    0.9429 C   0  0  0  0  0  0  0  0  0  0  0  0
    3.1210    3.6234    0.9160 N   0  0  0  0  0  0  0  0  0  0  0  0
    2.4970    4.7069    1.6483 C   0  0  0  0  0  0  0  0  0  0  0  0
    2.5838    6.0381    1.1983 C   0  0  0  0  0  0  0  0  0  0  0  0
    1.9387    7.0656    1.8844 C   0  0  0  0  0  0  0  0  0  0  0  0
    2.0232    8.3208    1.4161 F   0  0  0  0  0  0  0  0  0  0  0  0
    1.1969    6.8149    3.0243 C   0  0  0  0  0  0  0  0  0  0  0  0
    1.0962    5.5091    3.4908 C   0  0  0  0  0  0  0  0  0  0  0  0
    1.7382    4.4650    2.8076 C   0  0  0  0  0  0  0  0  0  0  0  0
    4.2753    3.8995    0.1474 C   0  0  0  0  0  0  0  0  0  0  0  0
    4.9416    4.9296    0.1483 O   0  0  0  0  0  0  0  0  0  0  0  0
    4.7202    2.8194   -0.7646 C   0  0  0  0  0  0  0  0  0  0  0  0
    4.1016    1.6379   -0.7760 C   0  0  0  0  0  0  0  0  0  0  0  0
    2.9993   -1.2100   -0.1715 N   0  0  0  0  0  0  0  0  0  0  0  0
    2.3118   -2.4942    0.0312 C   0  0  0  0  0  0  0  0  0  0  0  0
    1.4842   -2.8979   -1.1388 C   0  0  0  0  0  0  0  0  0  0  0  0
    1.5774   -3.9825   -1.9859 C   0  0  0  0  0  0  0  0  0  0  0  0
    0.4927   -4.0542   -2.8194 N   0  0  0  0  0  0  0  0  0  0  0  0
   -0.2668   -3.0367   -2.4866 C   0  0  0  0  0  0  0  0  0  0  0  0
    0.3068   -2.2894   -1.4984 N   0  0  0  0  0  0  0  0  0  0  0  0
    4.4130   -1.3071   -0.2653 C   0  0  0  0  0  0  0  0  0  0  0  0
    5.2223   -1.0374    0.8443 C   0  0  0  0  0  0  0  0  0  0  0  0
    6.5986   -0.8856    0.6768 C   0  0  0  0  0  0  0  0  0  0  0  0
    7.1620   -0.9962   -0.5946 C   0  0  0  0  0  0  0  0  0  0  0  0
    6.3629   -1.3274   -1.6903 C   0  0  0  0  0  0  0  0  0  0  0  0
    4.9899   -1.5191   -1.5229 C   0  0  0  0  0  0  0  0  0  0  0  0
    1.7412    2.1463    1.5916 H   0  0  0  0  0  0  0  0  0  0  0  0
    3.1138    6.3100    0.2929 H   0  0  0  0  0  0  0  0  0  0  0  0
    0.7025    7.6334    3.5374 H   0  0  0  0  0  0  0  0  0  0  0  0
    0.5233    5.2962    4.3902 H   0  0  0  0  0  0  0  0  0  0  0  0
    1.6569    3.4716    3.2318 H   0  0  0  0  0  0  0  0  0  0  0  0
    5.5320    3.0610   -1.4402 H   0  0  0  0  0  0  0  0  0  0  0  0
    4.3944    0.9249   -1.5306 H   0  0  0  0  0  0  0  0  0  0  0  0
    1.6740   -2.4346    0.9217 H   0  0  0  0  0  0  0  0  0  0  0  0
    3.0493   -3.2811    0.2360 H   0  0  0  0  0  0  0  0  0  0  0  0
    2.3458   -4.7456   -2.0091 H   0  0  0  0  0  0  0  0  0  0  0  0
   -1.2335   -2.8026   -2.9143 H   0  0  0  0  0  0  0  0  0  0  0  0
   -0.0937   -1.4609   -1.0674 H   0  0  0  0  0  0  0  0  0  0  0  0
    4.7875   -0.9110    1.8323 H   0  0  0  0  0  0  0  0  0  0  0  0
    7.2268   -0.6436    1.5307 H   0  0  0  0  0  0  0  0  0  0  0  0
    8.2252   -0.8123   -0.7333 H   0  0  0  0  0  0  0  0  0  0  0  0
    6.8035   -1.3909   -2.6828 H   0  0  0  0  0  0  0  0  0  0  0  0
    4.3648   -1.7146   -2.3916 H   0  0  0  0  0  0  0  0  0  0  0  0
  1  2  2  0  0  0  0
  2  3  1  0  0  0  0
  2 17  1  0  0  0  0
  3  4  2  0  0  0  0
  3 16  1  0  0  0  0
  4  5  1  0  0  0  0
  4 30  1  0  0  0  0
  5  6  1  0  0  0  0
  5 13  1  0  0  0  0
  6  7  2  0  0  0  0
  6 12  1  0  0  0  0
  7  8  1  0  0  0  0
  7 31  1  0  0  0  0
  8  9  1  0  0  0  0
  8 10  2  0  0  0  0
 10 11  1  0  0  0  0
 10 32  1  0  0  0  0
 11 12  2  0  0  0  0
 11 33  1  0  0  0  0
 12 34  1  0  0  0  0
 13 14  2  0  0  0  0
 13 15  1  0  0  0  0
 15 16  2  0  0  0  0
 15 35  1  0  0  0  0
 16 36  1  0  0  0  0
 17 18  1  0  0  0  0
 17 24  1  0  0  0  0
 18 19  1  0  0  0  0
 18 37  1  0  0  0  0
 18 38  1  0  0  0  0
 19 20  2  0  0  0  0
 19 23  1  0  0  0  0
 20 21  1  0  0  0  0
 20 39  1  0  0  0  0
 21 22  2  0  0  0  0
 22 23  1  0  0  0  0
 22 40  1  0  0  0  0
 23 41  1  0  0  0  0
 24 25  2  0  0  0  0
 24 29  1  0  0  0  0
 25 26  1  0  0  0  0
 25 42  1  0  0  0  0
 26 27  2  0  0  0  0
 26 43  1  0  0  0  0
 27 28  1  0  0  0  0
 27 44  1  0  0  0  0
 28 29  2  0  0  0  0
 28 45  1  0  0  0  0
 29 46  1  0  0  0  0
M  END
$$$$
