
 OpenBabel01122422493D

 53 56  0  0  0  0  0  0  0  0999 V2000
    2.5767    0.0990    1.2087 C   0  0  0  0  0  0  0  0  0  0  0  0
    2.7564   -1.2859    0.9375 O   0  0  0  0  0  0  0  0  0  0  0  0
    3.4714   -1.5150   -0.2858 C   0  0  0  0  0  0  0  0  0  0  0  0
    4.8911   -0.9863   -0.2789 C   0  0  0  0  0  0  0  0  0  0  0  0
    5.1756    0.0178   -1.1182 N   0  0  0  0  0  0  0  0  0  0  0  0
    6.4412    0.4823   -1.0824 C   0  0  0  0  0  0  0  0  0  0  0  0
    7.4444    0.0065   -0.2467 C   0  0  0  0  0  0  0  0  0  0  0  0
    8.7755    0.5089   -0.2838 N   0  0  0  0  0  0  0  0  0  0  0  0
    9.3162    1.1833   -1.3669 C   0  0  0  0  0  0  0  0  0  0  0  0
    8.6884    1.3793   -2.4038 O   0  0  0  0  0  0  0  0  0  0  0  0
   10.7666    1.5807   -1.2716 C   0  0  0  0  0  0  0  0  0  0  0  0
   11.3004    2.5239   -2.0904 C   0  0  0  0  0  0  0  0  0  0  0  0
   10.4812    3.2802   -3.0678 C   0  0  0  0  0  0  0  0  0  0  0  0
    9.7994    4.4488   -2.6874 C   0  0  0  0  0  0  0  0  0  0  0  0
    9.1623    5.2372   -3.6490 C   0  0  0  0  0  0  0  0  0  0  0  0
    9.1372    4.8262   -4.9804 C   0  0  0  0  0  0  0  0  0  0  0  0
    9.7386    3.6247   -5.3513 C   0  0  0  0  0  0  0  0  0  0  0  0
   10.4181    2.8581   -4.4026 C   0  0  0  0  0  0  0  0  0  0  0  0
   12.8028    2.7150   -2.0172 C   0  0  0  0  0  0  0  0  0  0  0  0
   13.4817    3.7473   -2.8813 C   0  0  0  0  0  0  0  0  0  0  0  0
   12.9588    5.0262   -3.0887 C   0  0  0  0  0  0  0  0  0  0  0  0
   13.5613    5.9256   -3.9711 C   0  0  0  0  0  0  0  0  0  0  0  0
   14.7649    5.5911   -4.5781 C   0  0  0  0  0  0  0  0  0  0  0  0
   15.3602    4.3632   -4.2973 C   0  0  0  0  0  0  0  0  0  0  0  0
   14.7202    3.4387   -3.4628 C   0  0  0  0  0  0  0  0  0  0  0  0
   13.5806    1.9864   -1.2733 N   0  0  0  0  0  0  0  0  0  0  0  0
   13.0038    1.0657   -0.4690 N   0  0  0  0  0  0  0  0  0  0  0  0
   11.6618    0.8735   -0.3174 C   0  0  0  0  0  0  0  0  0  0  0  0
   11.2150    0.1327    0.5573 O   0  0  0  0  0  0  0  0  0  0  0  0
    7.0335   -1.0053    0.6189 C   0  0  0  0  0  0  0  0  0  0  0  0
    7.9088   -1.6344    1.6592 C   0  0  0  0  0  0  0  0  0  0  0  0
    5.7701   -1.5033    0.6018 N   0  0  0  0  0  0  0  0  0  0  0  0
    1.9912    0.1909    2.1270 H   0  0  0  0  0  0  0  0  0  0  0  0
    2.0314    0.5852    0.3944 H   0  0  0  0  0  0  0  0  0  0  0  0
    3.5370    0.5974    1.3720 H   0  0  0  0  0  0  0  0  0  0  0  0
    2.9044   -1.0859   -1.1215 H   0  0  0  0  0  0  0  0  0  0  0  0
    3.5100   -2.5978   -0.4459 H   0  0  0  0  0  0  0  0  0  0  0  0
    6.5960    1.3098   -1.7679 H   0  0  0  0  0  0  0  0  0  0  0  0
    9.4235    0.1993    0.4404 H   0  0  0  0  0  0  0  0  0  0  0  0
    9.8200    4.7925   -1.6553 H   0  0  0  0  0  0  0  0  0  0  0  0
    8.7005    6.1787   -3.3638 H   0  0  0  0  0  0  0  0  0  0  0  0
    8.6419    5.4387   -5.7299 H   0  0  0  0  0  0  0  0  0  0  0  0
    9.6850    3.2857   -6.3826 H   0  0  0  0  0  0  0  0  0  0  0  0
   10.8851    1.9259   -4.7096 H   0  0  0  0  0  0  0  0  0  0  0  0
   12.0742    5.3655   -2.5686 H   0  0  0  0  0  0  0  0  0  0  0  0
   13.0902    6.8827   -4.1747 H   0  0  0  0  0  0  0  0  0  0  0  0
   15.2474    6.2940   -5.2521 H   0  0  0  0  0  0  0  0  0  0  0  0
   16.3296    4.1219   -4.7306 H   0  0  0  0  0  0  0  0  0  0  0  0
   15.1999    2.4833   -3.2653 H   0  0  0  0  0  0  0  0  0  0  0  0
   13.6267    0.5514    0.1451 H   0  0  0  0  0  0  0  0  0  0  0  0
    8.9724   -1.5513    1.4349 H   0  0  0  0  0  0  0  0  0  0  0  0
    7.6825   -2.7047    1.7326 H   0  0  0  0  0  0  0  0  0  0  0  0
    7.7100   -1.1779    2.6341 H   0  0  0  0  0  0  0  0  0  0  0  0
  1  2  1  0  0  0  0
  1 33  1  0  0  0  0
  1 34  1  0  0  0  0
  1 35  1  0  0  0  0
  2  3  1  0  0  0  0
  3  4  1  0  0  0  0
  3 36  1  0  0  0  0
  3 37  1  0  0  0  0
  4  5  2  0  0  0  0
  4 32  1  0  0  0  0
  5  6  1  0  0  0  0
  6  7  2  0  0  0  0
  6 38  1  0  0  0  0
  7  8  1  0  0  0  0
  7 30  1  0  0  0  0
  8  9  1  0  0  0  0
  8 39  1  0  0  0  0
  9 10  2  0  0  0  0
  9 11  1  0  0  0  0
 11 12  2  0  0  0  0
 11 28  1  0  0  0  0
 12 13  1  0  0  0  0
 12 19  1  0  0  0  0
 13 14  2  0  0  0  0
 13 18  1  0  0  0  0
 14 15  1  0  0  0  0
 14 40  1  0  0  0  0
 15 16  2  0  0  0  0
 15 41  1  0  0  0  0
 16 17  1  0  0  0  0
 16 42  1  0  0  0  0
 17 18  2  0  0  0  0
 17 43  1  0  0  0  0
 18 44  1  0  0  0  0
 19 20  1  0  0  0  0
 19 26  2  0  0  0  0
 20 21  2  0  0  0  0
 20 25  1  0  0  0  0
 21 22  1  0  0  0  0
 21 45  1  0  0  0  0
 22 23  2  0  0  0  0
 22 46  1  0  0  0  0
 23 24  1  0  0  0  0
 23 47  1  0  0  0  0
 24 25  2  0  0  0  0
 24 48  1  0  0  0  0
 25 49  1  0  0  0  0
 26 27  1  0  0  0  0
 27 28  1  0  0  0  0
 27 50  1  0  0  0  0
 28 29  2  0  0  0  0
 30 31  1  0  0  0  0
 30 32  2  0  0  0  0
 31 51  1  0  0  0  0
 31 52  1  0  0  0  0
 31 53  1  0  0  0  0
M  END
$$$$
