
 OpenBabel01122422493D

 47 50  0  0  0  0  0  0  0  0999 V2000
    2.4253    0.0641    0.7639 C   0  0  0  0  0  0  0  0  0  0  0  0
    0.9711   -0.0057    0.3660 C   0  0  0  0  0  0  0  0  0  0  0  0
    0.2492    1.2129    0.4260 C   0  0  0  0  0  0  0  0  0  0  0  0
   -1.0877    1.2762    0.0394 C   0  0  0  0  0  0  0  0  0  0  0  0
   -1.9064    2.5100    0.1349 C   0  0  0  0  0  0  0  0  0  0  0  0
   -3.1074    2.3663    0.3580 O   0  0  0  0  0  0  0  0  0  0  0  0
   -1.2645    3.7172   -0.0980 N   0  0  0  0  0  0  0  0  0  0  0  0
   -1.9089    4.9737   -0.0825 C   0  0  0  0  0  0  0  0  0  0  0  0
   -3.1559    5.1852    0.4892 C   0  0  0  0  0  0  0  0  0  0  0  0
   -3.7564    6.4408    0.4207 C   0  0  0  0  0  0  0  0  0  0  0  0
   -3.1048    7.5007   -0.2122 C   0  0  0  0  0  0  0  0  0  0  0  0
   -3.7456    8.7808   -0.2966 N   0  0  0  0  0  0  0  0  0  0  0  0
   -3.4981    9.6150   -1.3841 C   0  0  0  0  0  0  0  0  0  0  0  0
   -4.0741   10.8111   -1.5680 C   0  0  0  0  0  0  0  0  0  0  0  0
   -5.0249   11.2899   -0.5380 C   0  0  0  0  0  0  0  0  0  0  0  0
   -5.6044   12.3641   -0.6454 O   0  0  0  0  0  0  0  0  0  0  0  0
   -5.2548   10.4197    0.6387 C   0  0  0  0  0  0  0  0  0  0  0  0
   -4.6157    9.2428    0.6928 C   0  0  0  0  0  0  0  0  0  0  0  0
   -1.8804    7.3113   -0.7683 N   0  0  0  0  0  0  0  0  0  0  0  0
   -1.3102    6.0792   -0.6741 C   0  0  0  0  0  0  0  0  0  0  0  0
   -1.7222    0.1157   -0.3955 C   0  0  0  0  0  0  0  0  0  0  0  0
   -1.0311   -1.0981   -0.4278 C   0  0  0  0  0  0  0  0  0  0  0  0
    0.3253   -1.2070   -0.0473 C   0  0  0  0  0  0  0  0  0  0  0  0
    0.9748   -2.5542   -0.1003 C   0  0  0  0  0  0  0  0  0  0  0  0
    0.6154   -3.5047   -1.0712 C   0  0  0  0  0  0  0  0  0  0  0  0
    1.2217   -4.7555   -1.0784 C   0  0  0  0  0  0  0  0  0  0  0  0
    2.1883   -5.1276   -0.2195 N   0  0  0  0  0  0  0  0  0  0  0  0
    2.5295   -4.2216    0.7124 C   0  0  0  0  0  0  0  0  0  0  0  0
    1.9382   -2.9712    0.8264 C   0  0  0  0  0  0  0  0  0  0  0  0
    2.7676    1.0985    0.8683 H   0  0  0  0  0  0  0  0  0  0  0  0
    3.0542   -0.4055    0.0020 H   0  0  0  0  0  0  0  0  0  0  0  0
    2.5830   -0.3979    1.7410 H   0  0  0  0  0  0  0  0  0  0  0  0
    0.7432    2.1040    0.8109 H   0  0  0  0  0  0  0  0  0  0  0  0
   -0.3218    3.6854   -0.4671 H   0  0  0  0  0  0  0  0  0  0  0  0
   -3.7016    4.3987    0.9979 H   0  0  0  0  0  0  0  0  0  0  0  0
   -4.7543    6.5510    0.8310 H   0  0  0  0  0  0  0  0  0  0  0  0
   -2.8068    9.2174   -2.1216 H   0  0  0  0  0  0  0  0  0  0  0  0
   -3.8915   11.4437   -2.4249 H   0  0  0  0  0  0  0  0  0  0  0  0
   -5.9194   10.7773    1.4140 H   0  0  0  0  0  0  0  0  0  0  0  0
   -4.7373    8.6118    1.5605 H   0  0  0  0  0  0  0  0  0  0  0  0
   -0.3289    6.0125   -1.1351 H   0  0  0  0  0  0  0  0  0  0  0  0
   -2.7701    0.1425   -0.6934 H   0  0  0  0  0  0  0  0  0  0  0  0
   -1.5975   -1.9723   -0.7452 H   0  0  0  0  0  0  0  0  0  0  0  0
   -0.1370   -3.2985   -1.8255 H   0  0  0  0  0  0  0  0  0  0  0  0
    0.9315   -5.5129   -1.8009 H   0  0  0  0  0  0  0  0  0  0  0  0
    3.3107   -4.5284    1.4022 H   0  0  0  0  0  0  0  0  0  0  0  0
    2.2405   -2.3596    1.6633 H   0  0  0  0  0  0  0  0  0  0  0  0
  1  2  1  0  0  0  0
  1 30  1  0  0  0  0
  1 31  1  0  0  0  0
  1 32  1  0  0  0  0
  2  3  2  0  0  0  0
  2 23  1  0  0  0  0
  3  4  1  0  0  0  0
  3 33  1  0  0  0  0
  4  5  1  0  0  0  0
  4 21  2  0  0  0  0
  5  6  2  0  0  0  0
  5  7  1  0  0  0  0
  7  8  1  0  0  0  0
  7 34  1  0  0  0  0
  8  9  2  0  0  0  0
  8 20  1  0  0  0  0
  9 10  1  0  0  0  0
  9 35  1  0  0  0  0
 10 11  2  0  0  0  0
 10 36  1  0  0  0  0
 11 12  1  0  0  0  0
 11 19  1  0  0  0  0
 12 13  1  0  0  0  0
 12 18  1  0  0  0  0
 13 14  2  0  0  0  0
 13 37  1  0  0  0  0
 14 15  1  0  0  0  0
 14 38  1  0  0  0  0
 15 16  2  0  0  0  0
 15 17  1  0  0  0  0
 17 18  2  0  0  0  0
 17 39  1  0  0  0  0
 18 40  1  0  0  0  0
 19 20  2  0  0  0  0
 20 41  1  0  0  0  0
 21 22  1  0  0  0  0
 21 42  1  0  0  0  0
 22 23  2  0  0  0  0
 22 43  1  0  0  0  0
 23 24  1  0  0  0  0
 24 25  2  0  0  0  0
 24 29  1  0  0  0  0
 25 26  1  0  0  0  0
 25 44  1  0  0  0  0
 26 27  2  0  0  0  0
 26 45  1  0  0  0  0
 27 28  1  0  0  0  0
 28 29  2  0  0  0  0
 28 46  1  0  0  0  0
 29 47  1  0  0  0  0
M  END
$$$$
