
 OpenBabel01122422493D

 54 57  0  0  0  0  0  0  0  0999 V2000
    3.7878    3.8344    1.1879 C   0  0  0  0  0  0  0  0  0  0  0  0
    4.4195    2.5842    0.6798 C   0  0  0  0  0  0  0  0  0  0  0  0
    3.7159    1.5088    0.3888 N   0  0  0  0  0  0  0  0  0  0  0  0
    4.6195    0.5321    0.1156 C   0  0  0  0  0  0  0  0  0  0  0  0
    5.9210    0.9874    0.2190 C   0  0  0  0  0  0  0  0  0  0  0  0
    7.1502    0.2779   -0.0770 C   0  0  0  0  0  0  0  0  0  0  0  0
    8.1358    0.8272   -0.5623 O   0  0  0  0  0  0  0  0  0  0  0  0
    7.1241   -1.0806    0.1990 N   0  0  0  0  0  0  0  0  0  0  0  0
    8.2563   -1.9069    0.0300 C   0  0  0  0  0  0  0  0  0  0  0  0
    8.0984   -3.0723   -0.7163 C   0  0  0  0  0  0  0  0  0  0  0  0
    9.1850   -3.9132   -0.9189 C   0  0  0  0  0  0  0  0  0  0  0  0
   10.4191   -3.6140   -0.3393 C   0  0  0  0  0  0  0  0  0  0  0  0
   10.6037   -2.4520    0.4173 C   0  0  0  0  0  0  0  0  0  0  0  0
   11.8600   -2.1014    0.9852 N   0  0  0  0  0  0  0  0  0  0  0  0
   13.0755   -2.6509    0.6256 C   0  0  0  0  0  0  0  0  0  0  0  0
   13.2513   -3.5339   -0.2149 O   0  0  0  0  0  0  0  0  0  0  0  0
   14.1448   -2.0659    1.2652 N   0  0  0  0  0  0  0  0  0  0  0  0
   15.4701   -2.5718    0.9494 C   0  0  0  0  0  0  0  0  0  0  0  0
   16.5621   -1.5758    1.2202 C   0  0  0  0  0  0  0  0  0  0  0  0
   17.6408   -1.8965    2.0491 C   0  0  0  0  0  0  0  0  0  0  0  0
   18.6642   -0.9721    2.1969 C   0  0  0  0  0  0  0  0  0  0  0  0
   18.6860    0.2299    1.5836 N   0  0  0  0  0  0  0  0  0  0  0  0
   17.6424    0.5168    0.7771 C   0  0  0  0  0  0  0  0  0  0  0  0
   16.5737   -0.3399    0.5657 C   0  0  0  0  0  0  0  0  0  0  0  0
    9.5052   -1.5973    0.6041 C   0  0  0  0  0  0  0  0  0  0  0  0
    5.7971    2.3363    0.5870 N   0  0  0  0  0  0  0  0  0  0  0  0
    6.8537    3.2584    0.8954 C   0  0  0  0  0  0  0  0  0  0  0  0
    6.7165    4.6258    0.6453 C   0  0  0  0  0  0  0  0  0  0  0  0
    7.7374    5.5220    0.9816 C   0  0  0  0  0  0  0  0  0  0  0  0
    8.9249    5.0521    1.5305 C   0  0  0  0  0  0  0  0  0  0  0  0
    9.0908    3.6903    1.7533 C   0  0  0  0  0  0  0  0  0  0  0  0
    8.0547    2.8021    1.4605 C   0  0  0  0  0  0  0  0  0  0  0  0
    2.7180    3.6695    1.3633 H   0  0  0  0  0  0  0  0  0  0  0  0
    3.8537    4.6473    0.4615 H   0  0  0  0  0  0  0  0  0  0  0  0
    4.2277    4.1459    2.1399 H   0  0  0  0  0  0  0  0  0  0  0  0
    4.2740   -0.4511   -0.1751 H   0  0  0  0  0  0  0  0  0  0  0  0
    6.2228   -1.5335    0.1453 H   0  0  0  0  0  0  0  0  0  0  0  0
    7.1551   -3.3031   -1.2030 H   0  0  0  0  0  0  0  0  0  0  0  0
    9.0880   -4.7979   -1.5418 H   0  0  0  0  0  0  0  0  0  0  0  0
   11.2241   -4.3229   -0.5053 H   0  0  0  0  0  0  0  0  0  0  0  0
   11.8971   -1.2559    1.5330 H   0  0  0  0  0  0  0  0  0  0  0  0
   13.9930   -1.7672    2.2160 H   0  0  0  0  0  0  0  0  0  0  0  0
   15.5260   -2.8556   -0.1093 H   0  0  0  0  0  0  0  0  0  0  0  0
   15.6147   -3.4876    1.5349 H   0  0  0  0  0  0  0  0  0  0  0  0
   17.7038   -2.8543    2.5552 H   0  0  0  0  0  0  0  0  0  0  0  0
   19.5258   -1.1864    2.8231 H   0  0  0  0  0  0  0  0  0  0  0  0
   17.6935    1.4803    0.2782 H   0  0  0  0  0  0  0  0  0  0  0  0
   15.7770   -0.0595   -0.1165 H   0  0  0  0  0  0  0  0  0  0  0  0
    9.6097   -0.6951    1.1990 H   0  0  0  0  0  0  0  0  0  0  0  0
    5.8521    5.0370    0.1372 H   0  0  0  0  0  0  0  0  0  0  0  0
    7.6102    6.5835    0.7942 H   0  0  0  0  0  0  0  0  0  0  0  0
    9.7281    5.7460    1.7738 H   0  0  0  0  0  0  0  0  0  0  0  0
   10.0272    3.3129    2.1543 H   0  0  0  0  0  0  0  0  0  0  0  0
    8.2230    1.7543    1.6931 H   0  0  0  0  0  0  0  0  0  0  0  0
  1  2  1  0  0  0  0
  1 33  1  0  0  0  0
  1 34  1  0  0  0  0
  1 35  1  0  0  0  0
  2  3  2  0  0  0  0
  2 26  1  0  0  0  0
  3  4  1  0  0  0  0
  4  5  2  0  0  0  0
  4 36  1  0  0  0  0
  5  6  1  0  0  0  0
  5 26  1  0  0  0  0
  6  7  2  0  0  0  0
  6  8  1  0  0  0  0
  8  9  1  0  0  0  0
  8 37  1  0  0  0  0
  9 10  2  0  0  0  0
  9 25  1  0  0  0  0
 10 11  1  0  0  0  0
 10 38  1  0  0  0  0
 11 12  2  0  0  0  0
 11 39  1  0  0  0  0
 12 13  1  0  0  0  0
 12 40  1  0  0  0  0
 13 14  1  0  0  0  0
 13 25  2  0  0  0  0
 14 15  1  0  0  0  0
 14 41  1  0  0  0  0
 15 16  2  0  0  0  0
 15 17  1  0  0  0  0
 17 18  1  0  0  0  0
 17 42  1  0  0  0  0
 18 19  1  0  0  0  0
 18 43  1  0  0  0  0
 18 44  1  0  0  0  0
 19 20  2  0  0  0  0
 19 24  1  0  0  0  0
 20 21  1  0  0  0  0
 20 45  1  0  0  0  0
 21 22  2  0  0  0  0
 21 46  1  0  0  0  0
 22 23  1  0  0  0  0
 23 24  2  0  0  0  0
 23 47  1  0  0  0  0
 24 48  1  0  0  0  0
 25 49  1  0  0  0  0
 26 27  1  0  0  0  0
 27 28  2  0  0  0  0
 27 32  1  0  0  0  0
 28 29  1  0  0  0  0
 28 50  1  0  0  0  0
 29 30  2  0  0  0  0
 29 51  1  0  0  0  0
 30 31  1  0  0  0  0
 30 52  1  0  0  0  0
 31 32  2  0  0  0  0
 31 53  1  0  0  0  0
 32 54  1  0  0  0  0
M  END
$$$$
