
 OpenBabel01122422453D

 43 46  0  0  0  0  0  0  0  0999 V2000
    0.5645   -0.1419   -0.9878 C   0  0  0  0  0  0  0  0  0  0  0  0
    1.9688   -0.3228   -0.8023 O   0  0  0  0  0  0  0  0  0  0  0  0
    2.7813    0.6095   -1.4037 C   0  0  0  0  0  0  0  0  0  0  0  0
    2.3590    1.9401   -1.5933 C   0  0  0  0  0  0  0  0  0  0  0  0
    3.2056    2.8846   -2.1688 C   0  0  0  0  0  0  0  0  0  0  0  0
    4.4721    2.5002   -2.5648 C   0  0  0  0  0  0  0  0  0  0  0  0
    5.2931    3.3986   -3.1229 F   0  0  0  0  0  0  0  0  0  0  0  0
    4.9116    1.1940   -2.3790 C   0  0  0  0  0  0  0  0  0  0  0  0
    4.0961    0.2157   -1.7668 C   0  0  0  0  0  0  0  0  0  0  0  0
    4.6615   -1.1476   -1.5547 C   0  0  0  0  0  0  0  0  0  0  0  0
    6.0099   -1.3344   -1.2322 C   0  0  0  0  0  0  0  0  0  0  0  0
    6.6382   -2.5327   -1.0919 N   0  0  0  0  0  0  0  0  0  0  0  0
    5.8887   -3.6319   -1.2708 C   0  0  0  0  0  0  0  0  0  0  0  0
    4.5375   -3.5890   -1.5641 C   0  0  0  0  0  0  0  0  0  0  0  0
    3.7678   -4.8631   -1.7082 C   0  0  0  0  0  0  0  0  0  0  0  0
    3.5551   -5.3277   -3.0694 N   0  0  0  0  0  0  0  0  0  0  0  0
    2.9004   -4.4571   -3.9092 C   0  0  0  0  0  0  0  0  0  0  0  0
    1.7028   -4.6378   -4.3507 N   0  0  0  0  0  0  0  0  0  0  0  0
    1.0269   -5.7752   -3.8731 C   0  0  0  0  0  0  0  0  0  0  0  0
   -0.3651   -5.8072   -3.8085 C   0  0  0  0  0  0  0  0  0  0  0  0
   -1.0807   -4.7415   -4.2003 F   0  0  0  0  0  0  0  0  0  0  0  0
   -1.0188   -6.9056   -3.2556 C   0  0  0  0  0  0  0  0  0  0  0  0
   -2.3504   -6.8883   -3.1143 F   0  0  0  0  0  0  0  0  0  0  0  0
   -0.3039   -8.0119   -2.7978 C   0  0  0  0  0  0  0  0  0  0  0  0
    1.0871   -8.0008   -2.8512 C   0  0  0  0  0  0  0  0  0  0  0  0
    1.7309   -6.8659   -3.3541 C   0  0  0  0  0  0  0  0  0  0  0  0
    3.1676   -6.6606   -3.1103 C   0  0  0  0  0  0  0  0  0  0  0  0
    3.9083   -7.6001   -2.8442 O   0  0  0  0  0  0  0  0  0  0  0  0
    3.9271   -2.3273   -1.7028 C   0  0  0  0  0  0  0  0  0  0  0  0
    0.0613   -1.0550   -0.6552 H   0  0  0  0  0  0  0  0  0  0  0  0
    0.3154    0.0110   -2.0439 H   0  0  0  0  0  0  0  0  0  0  0  0
    0.1880    0.6806   -0.3717 H   0  0  0  0  0  0  0  0  0  0  0  0
    1.3770    2.2764   -1.2754 H   0  0  0  0  0  0  0  0  0  0  0  0
    2.8863    3.9128   -2.3040 H   0  0  0  0  0  0  0  0  0  0  0  0
    5.9135    0.9570   -2.7294 H   0  0  0  0  0  0  0  0  0  0  0  0
    6.6736   -0.4925   -1.0684 H   0  0  0  0  0  0  0  0  0  0  0  0
    6.4201   -4.5746   -1.1558 H   0  0  0  0  0  0  0  0  0  0  0  0
    2.7741   -4.7187   -1.2565 H   0  0  0  0  0  0  0  0  0  0  0  0
    4.2352   -5.6599   -1.1145 H   0  0  0  0  0  0  0  0  0  0  0  0
    3.4686   -3.5449   -4.1569 H   0  0  0  0  0  0  0  0  0  0  0  0
   -0.8347   -8.8511   -2.3581 H   0  0  0  0  0  0  0  0  0  0  0  0
    1.6639   -8.8268   -2.4412 H   0  0  0  0  0  0  0  0  0  0  0  0
    2.8672   -2.2768   -1.9490 H   0  0  0  0  0  0  0  0  0  0  0  0
  1  2  1  0  0  0  0
  1 30  1  0  0  0  0
  1 31  1  0  0  0  0
  1 32  1  0  0  0  0
  2  3  1  0  0  0  0
  3  4  2  0  0  0  0
  3  9  1  0  0  0  0
  4  5  1  0  0  0  0
  4 33  1  0  0  0  0
  5  6  2  0  0  0  0
  5 34  1  0  0  0  0
  6  7  1  0  0  0  0
  6  8  1  0  0  0  0
  8  9  2  0  0  0  0
  8 35  1  0  0  0  0
  9 10  1  0  0  0  0
 10 11  2  0  0  0  0
 10 29  1  0  0  0  0
 11 12  1  0  0  0  0
 11 36  1  0  0  0  0
 12 13  2  0  0  0  0
 13 14  1  0  0  0  0
 13 37  1  0  0  0  0
 14 15  1  0  0  0  0
 14 29  2  0  0  0  0
 15 16  1  0  0  0  0
 15 38  1  0  0  0  0
 15 39  1  0  0  0  0
 16 17  1  0  0  0  0
 16 27  1  0  0  0  0
 17 18  2  0  0  0  0
 17 40  1  0  0  0  0
 18 19  1  0  0  0  0
 19 20  2  0  0  0  0
 19 26  1  0  0  0  0
 20 21  1  0  0  0  0
 20 22  1  0  0  0  0
 22 23  1  0  0  0  0
 22 24  2  0  0  0  0
 24 25  1  0  0  0  0
 24 41  1  0  0  0  0
 25 26  2  0  0  0  0
 25 42  1  0  0  0  0
 26 27  1  0  0  0  0
 27 28  2  0  0  0  0
 29 43  1  0  0  0  0
M  END
$$$$
