
 OpenBabel01122422463D

 51 54  0  0  0  0  0  0  0  0999 V2000
    3.3944    1.0600    0.8206 C   0  0  0  0  0  0  0  0  0  0  0  0
    2.5310    0.2879   -0.0632 N   0  0  0  0  0  0  0  0  0  0  0  0
    3.0324    0.0015   -1.4463 C   0  0  0  0  0  0  0  0  0  0  0  0
    2.1643    0.5783   -2.5660 C   0  0  0  0  0  0  0  0  0  0  0  0
    0.7673    0.3967   -2.4856 C   0  0  0  0  0  0  0  0  0  0  0  0
   -0.1351    0.9780   -3.3667 C   0  0  0  0  0  0  0  0  0  0  0  0
    0.3402    1.7645   -4.3912 C   0  0  0  0  0  0  0  0  0  0  0  0
    1.7151    1.8860   -4.5682 C   0  0  0  0  0  0  0  0  0  0  0  0
    2.6435    1.2321   -3.7232 C   0  0  0  0  0  0  0  0  0  0  0  0
    3.9925    1.1739   -4.0584 O   0  0  0  0  0  0  0  0  0  0  0  0
    4.2236    1.3772   -5.4778 C   0  0  0  0  0  0  0  0  0  0  0  0
    5.5407    0.9086   -6.0586 C   0  0  0  0  0  0  0  0  0  0  0  0
    6.6008    0.4487   -5.2789 C   0  0  0  0  0  0  0  0  0  0  0  0
    7.7675   -0.0236   -5.8901 C   0  0  0  0  0  0  0  0  0  0  0  0
    7.8915   -0.0290   -7.2813 C   0  0  0  0  0  0  0  0  0  0  0  0
    6.8578    0.4612   -8.0683 C   0  0  0  0  0  0  0  0  0  0  0  0
    5.6947    0.9366   -7.4624 C   0  0  0  0  0  0  0  0  0  0  0  0
    1.4021   -0.3610    0.4590 C   0  0  0  0  0  0  0  0  0  0  0  0
    0.9357   -1.4012   -0.0072 O   0  0  0  0  0  0  0  0  0  0  0  0
    0.6539    0.3431    1.5836 C   0  0  0  0  0  0  0  0  0  0  0  0
   -0.6437    0.6167    1.3901 C   0  0  0  0  0  0  0  0  0  0  0  0
   -1.4023    1.2658    2.4825 C   0  0  0  0  0  0  0  0  0  0  0  0
   -2.5868    1.5597    2.2922 O   0  0  0  0  0  0  0  0  0  0  0  0
   -0.6972    1.4867    3.6552 N   0  0  0  0  0  0  0  0  0  0  0  0
   -1.3297    2.0442    4.7628 C   0  0  0  0  0  0  0  0  0  0  0  0
   -0.6768    2.2609    5.9145 C   0  0  0  0  0  0  0  0  0  0  0  0
    0.7221    1.9343    6.0243 C   0  0  0  0  0  0  0  0  0  0  0  0
    1.3754    1.4162    4.9803 C   0  0  0  0  0  0  0  0  0  0  0  0
    0.6474    1.1546    3.7099 C   0  0  0  0  0  0  0  0  0  0  0  0
    1.3188    0.6130    2.7469 N   0  0  0  0  0  0  0  0  0  0  0  0
    4.4159    1.1099    0.4373 H   0  0  0  0  0  0  0  0  0  0  0  0
    3.4634    0.5705    1.7974 H   0  0  0  0  0  0  0  0  0  0  0  0
    2.9870    2.0673    0.9342 H   0  0  0  0  0  0  0  0  0  0  0  0
    3.1241   -1.0836   -1.5633 H   0  0  0  0  0  0  0  0  0  0  0  0
    4.0389    0.4305   -1.5275 H   0  0  0  0  0  0  0  0  0  0  0  0
    0.3290   -0.2395   -1.7320 H   0  0  0  0  0  0  0  0  0  0  0  0
   -1.1987    0.8096   -3.2338 H   0  0  0  0  0  0  0  0  0  0  0  0
   -0.3494    2.2441   -5.0774 H   0  0  0  0  0  0  0  0  0  0  0  0
    2.0310    2.4846   -5.4172 H   0  0  0  0  0  0  0  0  0  0  0  0
    4.1504    2.4516   -5.6923 H   0  0  0  0  0  0  0  0  0  0  0  0
    3.4638    0.8196   -6.0444 H   0  0  0  0  0  0  0  0  0  0  0  0
    6.5201    0.4381   -4.1960 H   0  0  0  0  0  0  0  0  0  0  0  0
    8.5824   -0.3990   -5.2779 H   0  0  0  0  0  0  0  0  0  0  0  0
    8.7922   -0.4170   -7.7486 H   0  0  0  0  0  0  0  0  0  0  0  0
    6.9503    0.4668   -9.1540 H   0  0  0  0  0  0  0  0  0  0  0  0
    4.8927    1.3135   -8.0967 H   0  0  0  0  0  0  0  0  0  0  0  0
   -1.1829    0.3917    0.4781 H   0  0  0  0  0  0  0  0  0  0  0  0
   -2.3837    2.2864    4.6613 H   0  0  0  0  0  0  0  0  0  0  0  0
   -1.1762    2.6790    6.7819 H   0  0  0  0  0  0  0  0  0  0  0  0
    1.2339    2.1132    6.9628 H   0  0  0  0  0  0  0  0  0  0  0  0
    2.4270    1.1558    5.0101 H   0  0  0  0  0  0  0  0  0  0  0  0
  1  2  1  0  0  0  0
  1 31  1  0  0  0  0
  1 32  1  0  0  0  0
  1 33  1  0  0  0  0
  2  3  1  0  0  0  0
  2 18  1  0  0  0  0
  3  4  1  0  0  0  0
  3 34  1  0  0  0  0
  3 35  1  0  0  0  0
  4  5  2  0  0  0  0
  4  9  1  0  0  0  0
  5  6  1  0  0  0  0
  5 36  1  0  0  0  0
  6  7  2  0  0  0  0
  6 37  1  0  0  0  0
  7  8  1  0  0  0  0
  7 38  1  0  0  0  0
  8  9  2  0  0  0  0
  8 39  1  0  0  0  0
  9 10  1  0  0  0  0
 10 11  1  0  0  0  0
 11 12  1  0  0  0  0
 11 40  1  0  0  0  0
 11 41  1  0  0  0  0
 12 13  2  0  0  0  0
 12 17  1  0  0  0  0
 13 14  1  0  0  0  0
 13 42  1  0  0  0  0
 14 15  2  0  0  0  0
 14 43  1  0  0  0  0
 15 16  1  0  0  0  0
 15 44  1  0  0  0  0
 16 17  2  0  0  0  0
 16 45  1  0  0  0  0
 17 46  1  0  0  0  0
 18 19  2  0  0  0  0
 18 20  1  0  0  0  0
 20 21  2  0  0  0  0
 20 30  1  0  0  0  0
 21 22  1  0  0  0  0
 21 47  1  0  0  0  0
 22 23  2  0  0  0  0
 22 24  1  0  0  0  0
 24 25  1  0  0  0  0
 24 29  1  0  0  0  0
 25 26  2  0  0  0  0
 25 48  1  0  0  0  0
 26 27  1  0  0  0  0
 26 49  1  0  0  0  0
 27 28  2  0  0  0  0
 27 50  1  0  0  0  0
 28 29  1  0  0  0  0
 28 51  1  0  0  0  0
 29 30  2  0  0  0  0
M  END
$$$$
