
 OpenBabel01122422503D

 49 52  0  0  0  0  0  0  0  0999 V2000
    1.4401    0.3631    0.4648 C   0  0  0  0  0  0  0  0  0  0  0  0
    2.5574   -0.1702   -0.2586 O   0  0  0  0  0  0  0  0  0  0  0  0
    3.1698    0.6652   -1.1661 C   0  0  0  0  0  0  0  0  0  0  0  0
    2.7068    1.9707   -1.4091 C   0  0  0  0  0  0  0  0  0  0  0  0
    3.3347    2.7948   -2.3361 C   0  0  0  0  0  0  0  0  0  0  0  0
    4.4609    2.3524   -3.0175 C   0  0  0  0  0  0  0  0  0  0  0  0
    4.9589    1.0704   -2.7838 C   0  0  0  0  0  0  0  0  0  0  0  0
    6.0541    0.5955   -3.4466 O   0  0  0  0  0  0  0  0  0  0  0  0
    7.1202    1.4916   -3.7292 C   0  0  0  0  0  0  0  0  0  0  0  0
    8.2699    0.7127   -4.3297 C   0  0  0  0  0  0  0  0  0  0  0  0
    9.0929    1.3215   -5.2864 C   0  0  0  0  0  0  0  0  0  0  0  0
   10.1577    0.6214   -5.8557 C   0  0  0  0  0  0  0  0  0  0  0  0
   10.4206   -0.6905   -5.4660 C   0  0  0  0  0  0  0  0  0  0  0  0
    9.6208   -1.3042   -4.5066 C   0  0  0  0  0  0  0  0  0  0  0  0
    8.5554   -0.6052   -3.9368 C   0  0  0  0  0  0  0  0  0  0  0  0
    4.2953    0.1945   -1.8935 C   0  0  0  0  0  0  0  0  0  0  0  0
    4.8569   -1.2173   -1.7905 C   0  0  0  0  0  0  0  0  0  0  0  0
    5.4827   -1.7263   -2.7013 O   0  0  0  0  0  0  0  0  0  0  0  0
    4.5654   -1.8932   -0.6468 N   0  0  0  0  0  0  0  0  0  0  0  0
    4.9976   -3.2094   -0.4043 C   0  0  0  0  0  0  0  0  0  0  0  0
    6.3115   -3.6526   -0.5241 C   0  0  0  0  0  0  0  0  0  0  0  0
    6.6768   -4.8944    0.0272 C   0  0  0  0  0  0  0  0  0  0  0  0
    5.7475   -5.6320    0.7723 C   0  0  0  0  0  0  0  0  0  0  0  0
    4.4414   -5.1526    0.8801 C   0  0  0  0  0  0  0  0  0  0  0  0
    4.0460   -4.0180    0.1904 C   0  0  0  0  0  0  0  0  0  0  0  0
    2.6689   -3.6778    0.1271 N   0  0  0  0  0  0  0  0  0  0  0  0
    2.0561   -3.8959    1.3259 C   0  0  0  0  0  0  0  0  0  0  0  0
    2.3786   -4.7997    2.1865 N   0  0  0  0  0  0  0  0  0  0  0  0
    3.4261   -5.6365    1.8406 C   0  0  0  0  0  0  0  0  0  0  0  0
    3.5813   -6.7484    2.3365 O   0  0  0  0  0  0  0  0  0  0  0  0
    1.1047   -0.3851    1.1891 H   0  0  0  0  0  0  0  0  0  0  0  0
    0.6024    0.5689   -0.2110 H   0  0  0  0  0  0  0  0  0  0  0  0
    1.7188    1.2598    1.0308 H   0  0  0  0  0  0  0  0  0  0  0  0
    1.8390    2.3809   -0.9019 H   0  0  0  0  0  0  0  0  0  0  0  0
    2.9353    3.7858   -2.5396 H   0  0  0  0  0  0  0  0  0  0  0  0
    4.9121    3.0076   -3.7532 H   0  0  0  0  0  0  0  0  0  0  0  0
    7.4659    1.9967   -2.8185 H   0  0  0  0  0  0  0  0  0  0  0  0
    6.7807    2.2281   -4.4637 H   0  0  0  0  0  0  0  0  0  0  0  0
    8.8994    2.3427   -5.6056 H   0  0  0  0  0  0  0  0  0  0  0  0
   10.7778    1.0990   -6.6085 H   0  0  0  0  0  0  0  0  0  0  0  0
   11.2462   -1.2365   -5.9142 H   0  0  0  0  0  0  0  0  0  0  0  0
    9.8149   -2.3310   -4.2060 H   0  0  0  0  0  0  0  0  0  0  0  0
    7.9300   -1.1083   -3.2007 H   0  0  0  0  0  0  0  0  0  0  0  0
    3.7187   -1.6051   -0.1670 H   0  0  0  0  0  0  0  0  0  0  0  0
    7.0758   -3.0216   -0.9734 H   0  0  0  0  0  0  0  0  0  0  0  0
    7.7066   -5.2424   -0.0512 H   0  0  0  0  0  0  0  0  0  0  0  0
    6.0500   -6.5321    1.3015 H   0  0  0  0  0  0  0  0  0  0  0  0
    2.2693   -4.3295   -0.5611 H   0  0  0  0  0  0  0  0  0  0  0  0
    1.2504   -3.1597    1.5044 H   0  0  0  0  0  0  0  0  0  0  0  0
  1  2  1  0  0  0  0
  1 31  1  0  0  0  0
  1 32  1  0  0  0  0
  1 33  1  0  0  0  0
  2  3  1  0  0  0  0
  3  4  2  0  0  0  0
  3 16  1  0  0  0  0
  4  5  1  0  0  0  0
  4 34  1  0  0  0  0
  5  6  2  0  0  0  0
  5 35  1  0  0  0  0
  6  7  1  0  0  0  0
  6 36  1  0  0  0  0
  7  8  1  0  0  0  0
  7 16  2  0  0  0  0
  8  9  1  0  0  0  0
  9 10  1  0  0  0  0
  9 37  1  0  0  0  0
  9 38  1  0  0  0  0
 10 11  2  0  0  0  0
 10 15  1  0  0  0  0
 11 12  1  0  0  0  0
 11 39  1  0  0  0  0
 12 13  2  0  0  0  0
 12 40  1  0  0  0  0
 13 14  1  0  0  0  0
 13 41  1  0  0  0  0
 14 15  2  0  0  0  0
 14 42  1  0  0  0  0
 15 43  1  0  0  0  0
 16 17  1  0  0  0  0
 17 18  2  0  0  0  0
 17 19  1  0  0  0  0
 19 20  1  0  0  0  0
 19 44  1  0  0  0  0
 20 21  2  0  0  0  0
 20 25  1  0  0  0  0
 21 22  1  0  0  0  0
 21 45  1  0  0  0  0
 22 23  2  0  0  0  0
 22 46  1  0  0  0  0
 23 24  1  0  0  0  0
 23 47  1  0  0  0  0
 24 25  2  0  0  0  0
 24 29  1  0  0  0  0
 25 26  1  0  0  0  0
 26 27  1  0  0  0  0
 26 48  1  0  0  0  0
 27 28  2  0  0  0  0
 27 49  1  0  0  0  0
 28 29  1  0  0  0  0
 29 30  2  0  0  0  0
M  END
$$$$
