
 OpenBabel01122422503D

 49 52  0  0  0  0  0  0  0  0999 V2000
    2.2528    1.0226   -0.4569 O   0  0  0  0  0  0  0  0  0  0  0  0
    2.6094   -0.1092   -0.1421 C   0  0  0  0  0  0  0  0  0  0  0  0
    2.4136   -1.2632   -0.8798 N   0  0  0  0  0  0  0  0  0  0  0  0
    1.7768   -1.3238   -2.1444 C   0  0  0  0  0  0  0  0  0  0  0  0
    1.5462   -0.2118   -2.9526 C   0  0  0  0  0  0  0  0  0  0  0  0
    0.8580   -0.3508   -4.1571 C   0  0  0  0  0  0  0  0  0  0  0  0
    0.4286   -1.6133   -4.5282 C   0  0  0  0  0  0  0  0  0  0  0  0
    0.6603   -2.7238   -3.7975 N   0  0  0  0  0  0  0  0  0  0  0  0
    1.3312   -2.5521   -2.6303 C   0  0  0  0  0  0  0  0  0  0  0  0
    3.2515   -0.2790    1.1883 C   0  0  0  0  0  0  0  0  0  0  0  0
    2.8076    0.5412    2.2355 C   0  0  0  0  0  0  0  0  0  0  0  0
    3.4338    0.4983    3.4818 C   0  0  0  0  0  0  0  0  0  0  0  0
    4.5296   -0.3477    3.6941 C   0  0  0  0  0  0  0  0  0  0  0  0
    5.2591   -0.3272    5.0132 C   0  0  0  0  0  0  0  0  0  0  0  0
    4.6945   -1.2557    5.9560 N   0  0  0  0  0  0  0  0  0  0  0  0
    5.2633   -1.4391    7.1939 C   0  0  0  0  0  0  0  0  0  0  0  0
    6.2658   -0.8311    7.5561 O   0  0  0  0  0  0  0  0  0  0  0  0
    4.5972   -2.4023    8.0419 C   0  0  0  0  0  0  0  0  0  0  0  0
    3.5053   -3.2284    7.8252 C   0  0  0  0  0  0  0  0  0  0  0  0
    3.2907   -4.0149    8.9911 C   0  0  0  0  0  0  0  0  0  0  0  0
    2.3080   -5.0682    9.2021 C   0  0  0  0  0  0  0  0  0  0  0  0
    1.7816   -5.3402   10.4602 C   0  0  0  0  0  0  0  0  0  0  0  0
    0.8744   -6.3889   10.5920 C   0  0  0  0  0  0  0  0  0  0  0  0
    0.5248   -7.1317    9.4709 C   0  0  0  0  0  0  0  0  0  0  0  0
    1.0851   -6.7820    8.2538 C   0  0  0  0  0  0  0  0  0  0  0  0
    1.9568   -5.7632    8.0915 N   0  0  0  0  0  0  0  0  0  0  0  0
    4.2612   -3.6431    9.8994 C   0  0  0  0  0  0  0  0  0  0  0  0
    5.0392   -2.6743    9.3189 N   0  0  0  0  0  0  0  0  0  0  0  0
    4.9472   -1.1937    2.6530 C   0  0  0  0  0  0  0  0  0  0  0  0
    4.3174   -1.1575    1.4014 C   0  0  0  0  0  0  0  0  0  0  0  0
    2.5874   -2.1470   -0.4174 H   0  0  0  0  0  0  0  0  0  0  0  0
    1.8941    0.7785   -2.6760 H   0  0  0  0  0  0  0  0  0  0  0  0
    0.6604    0.5121   -4.7841 H   0  0  0  0  0  0  0  0  0  0  0  0
   -0.1276   -1.7649   -5.4484 H   0  0  0  0  0  0  0  0  0  0  0  0
    1.4775   -3.4709   -2.0703 H   0  0  0  0  0  0  0  0  0  0  0  0
    1.9851    1.2346    2.0697 H   0  0  0  0  0  0  0  0  0  0  0  0
    3.0811    1.1572    4.2729 H   0  0  0  0  0  0  0  0  0  0  0  0
    5.2275    0.6774    5.4525 H   0  0  0  0  0  0  0  0  0  0  0  0
    6.3187   -0.5712    4.8693 H   0  0  0  0  0  0  0  0  0  0  0  0
    3.8248   -1.7143    5.7319 H   0  0  0  0  0  0  0  0  0  0  0  0
    2.9168   -3.2937    6.9207 H   0  0  0  0  0  0  0  0  0  0  0  0
    2.0605   -4.7494   11.3252 H   0  0  0  0  0  0  0  0  0  0  0  0
    0.4491   -6.6250   11.5630 H   0  0  0  0  0  0  0  0  0  0  0  0
   -0.1678   -7.9626    9.5429 H   0  0  0  0  0  0  0  0  0  0  0  0
    0.8441   -7.3323    7.3487 H   0  0  0  0  0  0  0  0  0  0  0  0
    4.4913   -4.0027   10.8934 H   0  0  0  0  0  0  0  0  0  0  0  0
    5.8477   -2.2298    9.7396 H   0  0  0  0  0  0  0  0  0  0  0  0
    5.7958   -1.8596    2.8025 H   0  0  0  0  0  0  0  0  0  0  0  0
    4.7062   -1.7744    0.5957 H   0  0  0  0  0  0  0  0  0  0  0  0
  1  2  2  0  0  0  0
  2  3  1  0  0  0  0
  2 10  1  0  0  0  0
  3  4  1  0  0  0  0
  3 31  1  0  0  0  0
  4  5  2  0  0  0  0
  4  9  1  0  0  0  0
  5  6  1  0  0  0  0
  5 32  1  0  0  0  0
  6  7  2  0  0  0  0
  6 33  1  0  0  0  0
  7  8  1  0  0  0  0
  7 34  1  0  0  0  0
  8  9  2  0  0  0  0
  9 35  1  0  0  0  0
 10 11  2  0  0  0  0
 10 30  1  0  0  0  0
 11 12  1  0  0  0  0
 11 36  1  0  0  0  0
 12 13  2  0  0  0  0
 12 37  1  0  0  0  0
 13 14  1  0  0  0  0
 13 29  1  0  0  0  0
 14 15  1  0  0  0  0
 14 38  1  0  0  0  0
 14 39  1  0  0  0  0
 15 16  1  0  0  0  0
 15 40  1  0  0  0  0
 16 17  2  0  0  0  0
 16 18  1  0  0  0  0
 18 19  2  0  0  0  0
 18 28  1  0  0  0  0
 19 20  1  0  0  0  0
 19 41  1  0  0  0  0
 20 21  1  0  0  0  0
 20 27  2  0  0  0  0
 21 22  2  0  0  0  0
 21 26  1  0  0  0  0
 22 23  1  0  0  0  0
 22 42  1  0  0  0  0
 23 24  2  0  0  0  0
 23 43  1  0  0  0  0
 24 25  1  0  0  0  0
 24 44  1  0  0  0  0
 25 26  2  0  0  0  0
 25 45  1  0  0  0  0
 27 28  1  0  0  0  0
 27 46  1  0  0  0  0
 28 47  1  0  0  0  0
 29 30  2  0  0  0  0
 29 48  1  0  0  0  0
 30 49  1  0  0  0  0
M  END
$$$$
