
 OpenBabel01122422503D

 47 50  0  0  1  0  0  0  0  0999 V2000
    1.0093    0.0875   -0.1960 C   0  0  0  0  0  0  0  0  0  0  0  0
    2.4400   -0.0611    0.0813 N   0  0  0  0  0  0  0  0  0  0  0  0
    2.9603   -0.9394    1.0652 C   0  0  0  0  0  0  0  0  0  0  0  0
    4.1677   -1.1622    1.1679 O   0  0  0  0  0  0  0  0  0  0  0  0
    2.0264   -1.6793    1.9904 C   0  0  0  0  0  0  0  0  0  0  0  0
    0.9116   -0.9947    2.3346 N   0  0  0  0  0  0  0  0  0  0  0  0
   -0.0832   -1.6142    3.0238 N   0  0  0  0  0  0  0  0  0  0  0  0
    0.0322   -2.8954    3.3887 C   0  0  0  0  0  0  0  0  0  0  0  0
   -1.0361   -3.4813    4.0585 C   0  0  0  0  0  0  0  0  0  0  0  0
   -0.9989   -4.8093    4.4756 C   0  0  0  0  0  0  0  0  0  0  0  0
    0.1331   -5.5701    4.2285 C   0  0  0  0  0  0  0  0  0  0  0  0
    1.2234   -4.9939    3.5684 C   0  0  0  0  0  0  0  0  0  0  0  0
    1.1955   -3.6452    3.1214 C   0  0  0  0  0  0  0  0  0  0  0  0
    2.2547   -3.0048    2.4110 C   0  0  0  0  0  0  0  0  0  0  0  0
    3.5219   -3.6157    2.3207 N   0  0  0  0  0  0  0  0  0  0  0  0
    3.2934    1.0039   -0.4957 C   0  0  3  0  0  0  0  0  0  0  0  0
    3.6290    2.0603    0.5489 C   0  0  0  0  0  0  0  0  0  0  0  0
    4.7397    1.9660    1.3893 C   0  0  0  0  0  0  0  0  0  0  0  0
    4.9945    2.9700    2.3138 C   0  0  0  0  0  0  0  0  0  0  0  0
    4.1238    4.0438    2.3795 C   0  0  0  0  0  0  0  0  0  0  0  0
    3.0319    4.1717    1.5937 N   0  0  0  0  0  0  0  0  0  0  0  0
    2.8050    3.1757    0.7094 C   0  0  0  0  0  0  0  0  0  0  0  0
    4.4581    0.6002   -1.4137 C   0  0  0  0  0  0  0  0  0  0  0  0
    5.2583    1.6126   -1.9973 C   0  0  0  0  0  0  0  0  0  0  0  0
    6.2744    1.3138   -2.9109 C   0  0  0  0  0  0  0  0  0  0  0  0
    6.5060   -0.0137   -3.2568 C   0  0  0  0  0  0  0  0  0  0  0  0
    7.4635   -0.3008   -4.1487 F   0  0  0  0  0  0  0  0  0  0  0  0
    5.7424   -1.0233   -2.6935 C   0  0  0  0  0  0  0  0  0  0  0  0
    5.9725   -2.3009   -3.0219 F   0  0  0  0  0  0  0  0  0  0  0  0
    4.7162   -0.7258   -1.7914 C   0  0  0  0  0  0  0  0  0  0  0  0
    0.4188   -0.7747    0.1122 H   0  0  0  0  0  0  0  0  0  0  0  0
    0.8630    0.1929   -1.2747 H   0  0  0  0  0  0  0  0  0  0  0  0
    0.6449    0.9901    0.3076 H   0  0  0  0  0  0  0  0  0  0  0  0
   -1.9225   -2.8831    4.2575 H   0  0  0  0  0  0  0  0  0  0  0  0
   -1.8527   -5.2394    4.9948 H   0  0  0  0  0  0  0  0  0  0  0  0
    0.1715   -6.6084    4.5467 H   0  0  0  0  0  0  0  0  0  0  0  0
    2.0933   -5.6202    3.3915 H   0  0  0  0  0  0  0  0  0  0  0  0
    3.5595   -4.6228    2.2303 H   0  0  0  0  0  0  0  0  0  0  0  0
    4.2063   -3.1121    1.7486 H   0  0  0  0  0  0  0  0  0  0  0  0
    2.6401    1.5101   -1.2237 H   0  0  0  0  0  0  0  0  0  0  0  0
    5.4097    1.1108    1.3257 H   0  0  0  0  0  0  0  0  0  0  0  0
    5.8556    2.9163    2.9716 H   0  0  0  0  0  0  0  0  0  0  0  0
    4.2863    4.8557    3.0802 H   0  0  0  0  0  0  0  0  0  0  0  0
    1.9091    3.3112    0.1107 H   0  0  0  0  0  0  0  0  0  0  0  0
    5.0920    2.6620   -1.7463 H   0  0  0  0  0  0  0  0  0  0  0  0
    6.8752    2.0974   -3.3560 H   0  0  0  0  0  0  0  0  0  0  0  0
    4.1318   -1.5545   -1.3956 H   0  0  0  0  0  0  0  0  0  0  0  0
  1  2  1  0  0  0  0
  1 31  1  0  0  0  0
  1 32  1  0  0  0  0
  1 33  1  0  0  0  0
  2  3  1  0  0  0  0
  2 16  1  0  0  0  0
  3  4  2  0  0  0  0
  3  5  1  0  0  0  0
  5  6  2  0  0  0  0
  5 14  1  0  0  0  0
  6  7  1  0  0  0  0
  7  8  2  0  0  0  0
  8  9  1  0  0  0  0
  8 13  1  0  0  0  0
  9 10  2  0  0  0  0
  9 34  1  0  0  0  0
 10 11  1  0  0  0  0
 10 35  1  0  0  0  0
 11 12  2  0  0  0  0
 11 36  1  0  0  0  0
 12 13  1  0  0  0  0
 12 37  1  0  0  0  0
 13 14  2  0  0  0  0
 14 15  1  0  0  0  0
 15 38  1  0  0  0  0
 15 39  1  0  0  0  0
 16 17  1  0  0  0  0
 16 23  1  0  0  0  0
 16 40  1  0  0  0  0
 17 18  2  0  0  0  0
 17 22  1  0  0  0  0
 18 19  1  0  0  0  0
 18 41  1  0  0  0  0
 19 20  2  0  0  0  0
 19 42  1  0  0  0  0
 20 21  1  0  0  0  0
 20 43  1  0  0  0  0
 21 22  2  0  0  0  0
 22 44  1  0  0  0  0
 23 24  2  0  0  0  0
 23 30  1  0  0  0  0
 24 25  1  0  0  0  0
 24 45  1  0  0  0  0
 25 26  2  0  0  0  0
 25 46  1  0  0  0  0
 26 27  1  0  0  0  0
 26 28  1  0  0  0  0
 28 29  1  0  0  0  0
 28 30  2  0  0  0  0
 30 47  1  0  0  0  0
M  END
$$$$
