
 OpenBabel01122422503D

 47 50  0  0  1  0  0  0  0  0999 V2000
    3.0219    2.1054   -0.5982 O   0  0  0  0  0  0  0  0  0  0  0  0
    3.2932    0.9467   -0.2935 C   0  0  0  0  0  0  0  0  0  0  0  0
    2.9130    0.4214    0.9302 N   0  0  0  0  0  0  0  0  0  0  0  0
    2.3284    1.3088    1.9514 C   0  0  3  0  0  0  0  0  0  0  0  0
    1.3556    0.5308    2.8639 C   0  0  0  0  0  0  0  0  0  0  0  0
    0.9910    0.8598    3.9824 O   0  0  0  0  0  0  0  0  0  0  0  0
    0.8204   -0.5526    2.2289 O   0  0  0  0  0  0  0  0  0  0  0  0
    3.3990    2.0824    2.6960 C   0  0  0  0  0  0  0  0  0  0  0  0
    4.2802    1.4532    3.5820 C   0  0  0  0  0  0  0  0  0  0  0  0
    5.2789    2.1902    4.2139 C   0  0  0  0  0  0  0  0  0  0  0  0
    5.4210    3.5558    3.9517 C   0  0  0  0  0  0  0  0  0  0  0  0
    4.5795    4.2219    3.0450 C   0  0  0  0  0  0  0  0  0  0  0  0
    4.8136    5.6388    2.6787 C   0  0  0  0  0  0  0  0  0  0  0  0
    6.1190    6.1248    2.5113 C   0  0  0  0  0  0  0  0  0  0  0  0
    6.3205    7.4419    2.1289 C   0  0  0  0  0  0  0  0  0  0  0  0
    5.3210    8.3145    1.8955 N   0  0  0  0  0  0  0  0  0  0  0  0
    4.0673    7.8425    2.0546 C   0  0  0  0  0  0  0  0  0  0  0  0
    3.7683    6.5412    2.4417 C   0  0  0  0  0  0  0  0  0  0  0  0
    3.5559    3.4644    2.4473 C   0  0  0  0  0  0  0  0  0  0  0  0
    3.9983    0.0495   -1.1889 C   0  0  0  0  0  0  0  0  0  0  0  0
    4.5523    0.3206   -2.4255 C   0  0  0  0  0  0  0  0  0  0  0  0
    5.0424   -0.8987   -2.9333 C   0  0  0  0  0  0  0  0  0  0  0  0
    4.7911   -1.8612   -1.9748 C   0  0  0  0  0  0  0  0  0  0  0  0
    5.0849   -3.2912   -1.9309 C   0  0  0  0  0  0  0  0  0  0  0  0
    4.6971   -4.1197   -0.8862 C   0  0  0  0  0  0  0  0  0  0  0  0
    5.0616   -5.4622   -0.9235 C   0  0  0  0  0  0  0  0  0  0  0  0
    5.8004   -5.9439   -2.0032 C   0  0  0  0  0  0  0  0  0  0  0  0
    6.1306   -5.0550   -3.0106 C   0  0  0  0  0  0  0  0  0  0  0  0
    5.7904   -3.7473   -2.9992 N   0  0  0  0  0  0  0  0  0  0  0  0
    4.1547   -1.2861   -0.8971 O   0  0  0  0  0  0  0  0  0  0  0  0
    3.4110   -0.4110    1.2288 H   0  0  0  0  0  0  0  0  0  0  0  0
    1.6785    2.0199    1.4233 H   0  0  0  0  0  0  0  0  0  0  0  0
    1.1278   -0.5943    1.2981 H   0  0  0  0  0  0  0  0  0  0  0  0
    4.1977    0.3901    3.7946 H   0  0  0  0  0  0  0  0  0  0  0  0
    5.9606    1.7024    4.9063 H   0  0  0  0  0  0  0  0  0  0  0  0
    6.2140    4.0973    4.4638 H   0  0  0  0  0  0  0  0  0  0  0  0
    6.9822    5.4821    2.6520 H   0  0  0  0  0  0  0  0  0  0  0  0
    7.3233    7.8321    1.9871 H   0  0  0  0  0  0  0  0  0  0  0  0
    3.2786    8.5621    1.8516 H   0  0  0  0  0  0  0  0  0  0  0  0
    2.7289    6.2515    2.5525 H   0  0  0  0  0  0  0  0  0  0  0  0
    2.8879    3.9456    1.7324 H   0  0  0  0  0  0  0  0  0  0  0  0
    4.5718    1.2920   -2.9017 H   0  0  0  0  0  0  0  0  0  0  0  0
    5.5248   -1.0747   -3.8859 H   0  0  0  0  0  0  0  0  0  0  0  0
    4.1249   -3.7341   -0.0500 H   0  0  0  0  0  0  0  0  0  0  0  0
    4.7849   -6.1321   -0.1150 H   0  0  0  0  0  0  0  0  0  0  0  0
    6.1071   -6.9826   -2.0564 H   0  0  0  0  0  0  0  0  0  0  0  0
    6.6975   -5.3809   -3.8785 H   0  0  0  0  0  0  0  0  0  0  0  0
  1  2  2  0  0  0  0
  2  3  1  0  0  0  0
  2 20  1  0  0  0  0
  3  4  1  0  0  0  0
  3 31  1  0  0  0  0
  4  5  1  0  0  0  0
  4  8  1  0  0  0  0
  4 32  1  0  0  0  0
  5  6  2  0  0  0  0
  5  7  1  0  0  0  0
  7 33  1  0  0  0  0
  8  9  2  0  0  0  0
  8 19  1  0  0  0  0
  9 10  1  0  0  0  0
  9 34  1  0  0  0  0
 10 11  2  0  0  0  0
 10 35  1  0  0  0  0
 11 12  1  0  0  0  0
 11 36  1  0  0  0  0
 12 13  1  0  0  0  0
 12 19  2  0  0  0  0
 13 14  2  0  0  0  0
 13 18  1  0  0  0  0
 14 15  1  0  0  0  0
 14 37  1  0  0  0  0
 15 16  2  0  0  0  0
 15 38  1  0  0  0  0
 16 17  1  0  0  0  0
 17 18  2  0  0  0  0
 17 39  1  0  0  0  0
 18 40  1  0  0  0  0
 19 41  1  0  0  0  0
 20 21  2  0  0  0  0
 20 30  1  0  0  0  0
 21 22  1  0  0  0  0
 21 42  1  0  0  0  0
 22 23  2  0  0  0  0
 22 43  1  0  0  0  0
 23 24  1  0  0  0  0
 23 30  1  0  0  0  0
 24 25  2  0  0  0  0
 24 29  1  0  0  0  0
 25 26  1  0  0  0  0
 25 44  1  0  0  0  0
 26 27  2  0  0  0  0
 26 45  1  0  0  0  0
 27 28  1  0  0  0  0
 27 46  1  0  0  0  0
 28 29  2  0  0  0  0
 28 47  1  0  0  0  0
M  END
$$$$
