
 OpenBabel01122422463D

 49 52  0  0  0  0  0  0  0  0999 V2000
    0.4452    5.7412   -5.0626 C   0  0  0  0  0  0  0  0  0  0  0  0
   -0.5663    6.1987   -4.0571 C   0  0  0  0  0  0  0  0  0  0  0  0
   -1.1509    7.4555   -4.1427 C   0  0  0  0  0  0  0  0  0  0  0  0
   -2.0742    7.8284   -3.1740 C   0  0  0  0  0  0  0  0  0  0  0  0
   -2.3813    6.9407   -2.1465 C   0  0  0  0  0  0  0  0  0  0  0  0
   -1.7574    5.6912   -2.1060 C   0  0  0  0  0  0  0  0  0  0  0  0
   -2.0212    4.7222   -1.0134 C   0  0  0  0  0  0  0  0  0  0  0  0
   -1.4162    3.5173   -1.0497 N   0  0  0  0  0  0  0  0  0  0  0  0
   -1.6540    2.6933   -0.0198 C   0  0  0  0  0  0  0  0  0  0  0  0
   -2.4634    3.0234    1.0422 C   0  0  0  0  0  0  0  0  0  0  0  0
   -3.0479    4.2731    0.9977 C   0  0  0  0  0  0  0  0  0  0  0  0
   -3.8967    4.6411    2.0590 N   0  0  0  0  0  0  0  0  0  0  0  0
   -4.5708    5.8465    2.1503 C   0  0  0  0  0  0  0  0  0  0  0  0
   -4.4423    6.8101    1.4000 O   0  0  0  0  0  0  0  0  0  0  0  0
   -5.5202    5.9396    3.3201 C   0  0  0  0  0  0  0  0  0  0  0  0
   -5.8843    7.1698    3.7331 C   0  0  0  0  0  0  0  0  0  0  0  0
   -6.7892    7.3605    4.7742 N   0  0  0  0  0  0  0  0  0  0  0  0
   -7.1923    8.7198    5.1535 C   0  0  0  0  0  0  0  0  0  0  0  0
   -8.3866    9.2022    4.3584 C   0  0  0  0  0  0  0  0  0  0  0  0
   -9.6919    8.9288    4.7962 C   0  0  0  0  0  0  0  0  0  0  0  0
  -10.7932    9.2821    4.0144 C   0  0  0  0  0  0  0  0  0  0  0  0
  -10.6029    9.9180    2.7897 C   0  0  0  0  0  0  0  0  0  0  0  0
   -9.3135   10.2244    2.3586 C   0  0  0  0  0  0  0  0  0  0  0  0
   -8.2106    9.8710    3.1389 C   0  0  0  0  0  0  0  0  0  0  0  0
   -7.3847    6.2894    5.4393 C   0  0  0  0  0  0  0  0  0  0  0  0
   -8.1815    6.3870    6.3680 O   0  0  0  0  0  0  0  0  0  0  0  0
   -7.0121    4.9394    4.9525 C   0  0  0  0  0  0  0  0  0  0  0  0
   -6.1362    4.7868    3.9502 C   0  0  0  0  0  0  0  0  0  0  0  0
   -2.8412    5.1151   -0.0179 N   0  0  0  0  0  0  0  0  0  0  0  0
   -0.8580    5.3257   -3.0651 N   0  0  0  0  0  0  0  0  0  0  0  0
    0.6113    6.4894   -5.8435 H   0  0  0  0  0  0  0  0  0  0  0  0
    0.1026    4.8178   -5.5404 H   0  0  0  0  0  0  0  0  0  0  0  0
    1.4000    5.5480   -4.5637 H   0  0  0  0  0  0  0  0  0  0  0  0
   -0.8941    8.1397   -4.9445 H   0  0  0  0  0  0  0  0  0  0  0  0
   -2.5490    8.8045   -3.2102 H   0  0  0  0  0  0  0  0  0  0  0  0
   -3.0957    7.2267   -1.3774 H   0  0  0  0  0  0  0  0  0  0  0  0
   -1.1546    1.7302   -0.0770 H   0  0  0  0  0  0  0  0  0  0  0  0
   -2.6207    2.3230    1.8482 H   0  0  0  0  0  0  0  0  0  0  0  0
   -3.9970    3.9690    2.8024 H   0  0  0  0  0  0  0  0  0  0  0  0
   -5.4888    8.0680    3.2645 H   0  0  0  0  0  0  0  0  0  0  0  0
   -6.3435    9.4025    5.0244 H   0  0  0  0  0  0  0  0  0  0  0  0
   -7.4360    8.7433    6.2235 H   0  0  0  0  0  0  0  0  0  0  0  0
   -9.8573    8.4169    5.7433 H   0  0  0  0  0  0  0  0  0  0  0  0
  -11.7981    9.0449    4.3545 H   0  0  0  0  0  0  0  0  0  0  0  0
  -11.4586   10.1690    2.1686 H   0  0  0  0  0  0  0  0  0  0  0  0
   -9.1649   10.7246    1.4052 H   0  0  0  0  0  0  0  0  0  0  0  0
   -7.2118   10.1054    2.7783 H   0  0  0  0  0  0  0  0  0  0  0  0
   -7.5053    4.1047    5.4338 H   0  0  0  0  0  0  0  0  0  0  0  0
   -5.9296    3.7891    3.5849 H   0  0  0  0  0  0  0  0  0  0  0  0
  1  2  1  0  0  0  0
  1 31  1  0  0  0  0
  1 32  1  0  0  0  0
  1 33  1  0  0  0  0
  2  3  2  0  0  0  0
  2 30  1  0  0  0  0
  3  4  1  0  0  0  0
  3 34  1  0  0  0  0
  4  5  2  0  0  0  0
  4 35  1  0  0  0  0
  5  6  1  0  0  0  0
  5 36  1  0  0  0  0
  6  7  1  0  0  0  0
  6 30  2  0  0  0  0
  7  8  2  0  0  0  0
  7 29  1  0  0  0  0
  8  9  1  0  0  0  0
  9 10  2  0  0  0  0
  9 37  1  0  0  0  0
 10 11  1  0  0  0  0
 10 38  1  0  0  0  0
 11 12  1  0  0  0  0
 11 29  2  0  0  0  0
 12 13  1  0  0  0  0
 12 39  1  0  0  0  0
 13 14  2  0  0  0  0
 13 15  1  0  0  0  0
 15 16  2  0  0  0  0
 15 28  1  0  0  0  0
 16 17  1  0  0  0  0
 16 40  1  0  0  0  0
 17 18  1  0  0  0  0
 17 25  1  0  0  0  0
 18 19  1  0  0  0  0
 18 41  1  0  0  0  0
 18 42  1  0  0  0  0
 19 20  2  0  0  0  0
 19 24  1  0  0  0  0
 20 21  1  0  0  0  0
 20 43  1  0  0  0  0
 21 22  2  0  0  0  0
 21 44  1  0  0  0  0
 22 23  1  0  0  0  0
 22 45  1  0  0  0  0
 23 24  2  0  0  0  0
 23 46  1  0  0  0  0
 24 47  1  0  0  0  0
 25 26  2  0  0  0  0
 25 27  1  0  0  0  0
 27 28  2  0  0  0  0
 27 48  1  0  0  0  0
 28 49  1  0  0  0  0
M  END
$$$$
