
 OpenBabel01122422503D

 48 51  0  0  0  0  0  0  0  0999 V2000
    1.4826    0.5331   -0.0320 C   0  0  0  0  0  0  0  0  0  0  0  0
    2.8872    0.3330    0.0889 O   0  0  0  0  0  0  0  0  0  0  0  0
    3.3219   -0.9476   -0.1293 C   0  0  0  0  0  0  0  0  0  0  0  0
    2.7047   -1.8675   -0.9741 C   0  0  0  0  0  0  0  0  0  0  0  0
    3.2236   -3.1631   -1.1350 C   0  0  0  0  0  0  0  0  0  0  0  0
    4.3956   -3.5426   -0.4459 C   0  0  0  0  0  0  0  0  0  0  0  0
    5.1588   -4.7518   -0.3236 C   0  0  0  0  0  0  0  0  0  0  0  0
    4.9640   -6.0891   -0.8820 C   0  0  0  0  0  0  0  0  0  0  0  0
    5.3454   -7.0697   -0.2505 O   0  0  0  0  0  0  0  0  0  0  0  0
    4.4232   -6.1374   -2.1562 N   0  0  0  0  0  0  0  0  0  0  0  0
    4.1974   -7.3264   -2.8919 C   0  0  0  0  0  0  0  0  0  0  0  0
    4.1646   -8.5989   -2.3260 C   0  0  0  0  0  0  0  0  0  0  0  0
    4.0237   -9.7312   -3.1353 C   0  0  0  0  0  0  0  0  0  0  0  0
    3.9038   -9.5694   -4.5077 C   0  0  0  0  0  0  0  0  0  0  0  0
    3.8532  -10.7305   -5.3000 N   0  0  0  0  0  0  0  0  0  0  0  0
    3.7382  -10.7301   -6.6766 C   0  0  0  0  0  0  0  0  0  0  0  0
    3.5219   -9.7659   -7.4004 O   0  0  0  0  0  0  0  0  0  0  0  0
    3.8753  -12.0592   -7.3423 C   0  0  0  0  0  0  0  0  0  0  0  0
    3.1898  -12.2549   -8.5506 C   0  0  0  0  0  0  0  0  0  0  0  0
    3.3638  -13.4389   -9.2579 C   0  0  0  0  0  0  0  0  0  0  0  0
    2.7335  -13.6537  -10.4476 O   0  0  0  0  0  0  0  0  0  0  0  0
    4.2062  -14.4354   -8.7803 C   0  0  0  0  0  0  0  0  0  0  0  0
    4.8889  -14.2483   -7.5778 C   0  0  0  0  0  0  0  0  0  0  0  0
    4.7283  -13.0606   -6.8566 C   0  0  0  0  0  0  0  0  0  0  0  0
    3.8705   -8.3501   -5.0696 N   0  0  0  0  0  0  0  0  0  0  0  0
    4.0102   -7.2659   -4.2653 C   0  0  0  0  0  0  0  0  0  0  0  0
    6.1882   -4.4767    0.5641 C   0  0  0  0  0  0  0  0  0  0  0  0
    6.0914   -3.1781    0.9656 N   0  0  0  0  0  0  0  0  0  0  0  0
    4.9978   -2.5884    0.3806 C   0  0  0  0  0  0  0  0  0  0  0  0
    4.4945   -1.2918    0.5469 C   0  0  0  0  0  0  0  0  0  0  0  0
    1.2656    1.5662    0.2565 H   0  0  0  0  0  0  0  0  0  0  0  0
    0.9334   -0.1289    0.6464 H   0  0  0  0  0  0  0  0  0  0  0  0
    1.1454    0.4069   -1.0649 H   0  0  0  0  0  0  0  0  0  0  0  0
    1.8120   -1.6073   -1.5334 H   0  0  0  0  0  0  0  0  0  0  0  0
    2.6963   -3.8636   -1.7753 H   0  0  0  0  0  0  0  0  0  0  0  0
    4.3723   -5.2594   -2.6567 H   0  0  0  0  0  0  0  0  0  0  0  0
    4.2511   -8.7506   -1.2546 H   0  0  0  0  0  0  0  0  0  0  0  0
    4.0341  -10.7121   -2.6722 H   0  0  0  0  0  0  0  0  0  0  0  0
    3.9043  -11.6142   -4.8159 H   0  0  0  0  0  0  0  0  0  0  0  0
    2.5439  -11.4678   -8.9316 H   0  0  0  0  0  0  0  0  0  0  0  0
    2.2558  -12.8441  -10.6969 H   0  0  0  0  0  0  0  0  0  0  0  0
    4.3462  -15.3466   -9.3559 H   0  0  0  0  0  0  0  0  0  0  0  0
    5.5675  -15.0190   -7.2200 H   0  0  0  0  0  0  0  0  0  0  0  0
    5.3138  -12.9171   -5.9534 H   0  0  0  0  0  0  0  0  0  0  0  0
    3.9973   -6.3234   -4.8040 H   0  0  0  0  0  0  0  0  0  0  0  0
    6.9706   -5.1203    0.9467 H   0  0  0  0  0  0  0  0  0  0  0  0
    6.7047   -2.7246    1.6292 H   0  0  0  0  0  0  0  0  0  0  0  0
    4.9798   -0.5783    1.2059 H   0  0  0  0  0  0  0  0  0  0  0  0
  1  2  1  0  0  0  0
  1 31  1  0  0  0  0
  1 32  1  0  0  0  0
  1 33  1  0  0  0  0
  2  3  1  0  0  0  0
  3  4  2  0  0  0  0
  3 30  1  0  0  0  0
  4  5  1  0  0  0  0
  4 34  1  0  0  0  0
  5  6  2  0  0  0  0
  5 35  1  0  0  0  0
  6  7  1  0  0  0  0
  6 29  1  0  0  0  0
  7  8  1  0  0  0  0
  7 27  2  0  0  0  0
  8  9  2  0  0  0  0
  8 10  1  0  0  0  0
 10 11  1  0  0  0  0
 10 36  1  0  0  0  0
 11 12  2  0  0  0  0
 11 26  1  0  0  0  0
 12 13  1  0  0  0  0
 12 37  1  0  0  0  0
 13 14  2  0  0  0  0
 13 38  1  0  0  0  0
 14 15  1  0  0  0  0
 14 25  1  0  0  0  0
 15 16  1  0  0  0  0
 15 39  1  0  0  0  0
 16 17  2  0  0  0  0
 16 18  1  0  0  0  0
 18 19  2  0  0  0  0
 18 24  1  0  0  0  0
 19 20  1  0  0  0  0
 19 40  1  0  0  0  0
 20 21  1  0  0  0  0
 20 22  2  0  0  0  0
 21 41  1  0  0  0  0
 22 23  1  0  0  0  0
 22 42  1  0  0  0  0
 23 24  2  0  0  0  0
 23 43  1  0  0  0  0
 24 44  1  0  0  0  0
 25 26  2  0  0  0  0
 26 45  1  0  0  0  0
 27 28  1  0  0  0  0
 27 46  1  0  0  0  0
 28 29  1  0  0  0  0
 28 47  1  0  0  0  0
 29 30  2  0  0  0  0
 30 48  1  0  0  0  0
M  END
$$$$
