
 OpenBabel01122422503D

 50 52  0  0  0  0  0  0  0  0999 V2000
    0.9689   -0.2056    0.6196 C   0  0  0  0  0  0  0  0  0  0  0  0
    2.3966   -0.0433    0.3811 N   0  0  0  0  0  0  0  0  0  0  0  0
    2.8027    1.3097    0.0007 C   0  0  0  0  0  0  0  0  0  0  0  0
    3.9619    1.9133    0.7462 C   0  0  0  0  0  0  0  0  0  0  0  0
    4.9822    2.5823    0.0502 C   0  0  0  0  0  0  0  0  0  0  0  0
    6.0696    3.1378    0.7175 C   0  0  0  0  0  0  0  0  0  0  0  0
    6.1150    3.0966    2.1046 C   0  0  0  0  0  0  0  0  0  0  0  0
    5.0489    2.5417    2.8164 C   0  0  0  0  0  0  0  0  0  0  0  0
    4.9437    2.5748    4.1788 O   0  0  0  0  0  0  0  0  0  0  0  0
    5.4476    3.7708    4.7513 C   0  0  0  0  0  0  0  0  0  0  0  0
    4.7147    4.0336    5.8619 F   0  0  0  0  0  0  0  0  0  0  0  0
    6.7205    3.5434    5.1635 F   0  0  0  0  0  0  0  0  0  0  0  0
    4.0023    1.9112    2.1412 C   0  0  0  0  0  0  0  0  0  0  0  0
    3.1692   -1.2075    0.3451 C   0  0  0  0  0  0  0  0  0  0  0  0
    2.6768   -2.3086    0.6186 O   0  0  0  0  0  0  0  0  0  0  0  0
    4.6307   -1.2230    0.1013 C   0  0  0  0  0  0  0  0  0  0  0  0
    5.3793   -2.0628    0.9518 C   0  0  0  0  0  0  0  0  0  0  0  0
    6.7498   -2.2150    0.7753 C   0  0  0  0  0  0  0  0  0  0  0  0
    7.3481   -1.4922   -0.2357 C   0  0  0  0  0  0  0  0  0  0  0  0
    6.6686   -0.6944   -1.0906 N   0  0  0  0  0  0  0  0  0  0  0  0
    5.3115   -0.6193   -0.9529 C   0  0  0  0  0  0  0  0  0  0  0  0
    4.5891    0.0596   -1.9361 O   0  0  0  0  0  0  0  0  0  0  0  0
    5.1340    0.2123   -3.1990 C   0  0  0  0  0  0  0  0  0  0  0  0
    5.8273   -0.8496   -3.7954 C   0  0  0  0  0  0  0  0  0  0  0  0
    6.4078   -0.7137   -5.0560 C   0  0  0  0  0  0  0  0  0  0  0  0
    6.2644    0.4736   -5.7575 C   0  0  0  0  0  0  0  0  0  0  0  0
    5.5258    1.5204   -5.2133 C   0  0  0  0  0  0  0  0  0  0  0  0
    4.9432    1.4000   -3.9326 C   0  0  0  0  0  0  0  0  0  0  0  0
    4.0793    2.5295   -3.4907 C   0  0  0  0  0  0  0  0  0  0  0  0
    4.5167    3.8021   -3.7557 N   0  0  0  0  0  0  0  0  0  0  0  0
    2.9995    2.3673   -2.9445 O   0  0  0  0  0  0  0  0  0  0  0  0
    0.4033    0.4063   -0.0906 H   0  0  0  0  0  0  0  0  0  0  0  0
    0.7538    0.1244    1.6395 H   0  0  0  0  0  0  0  0  0  0  0  0
    0.6383   -1.2408    0.5011 H   0  0  0  0  0  0  0  0  0  0  0  0
    1.9526    1.9934    0.1172 H   0  0  0  0  0  0  0  0  0  0  0  0
    2.9838    1.2623   -1.0613 H   0  0  0  0  0  0  0  0  0  0  0  0
    4.9506    2.6590   -1.0310 H   0  0  0  0  0  0  0  0  0  0  0  0
    6.8729    3.6050    0.1535 H   0  0  0  0  0  0  0  0  0  0  0  0
    6.9836    3.5104    2.6085 H   0  0  0  0  0  0  0  0  0  0  0  0
    5.4127    4.6518    4.0981 H   0  0  0  0  0  0  0  0  0  0  0  0
    3.1966    1.4453    2.7043 H   0  0  0  0  0  0  0  0  0  0  0  0
    4.8805   -2.6290    1.7386 H   0  0  0  0  0  0  0  0  0  0  0  0
    7.3264   -2.8843    1.4058 H   0  0  0  0  0  0  0  0  0  0  0  0
    8.4187   -1.5576   -0.4097 H   0  0  0  0  0  0  0  0  0  0  0  0
    5.9414   -1.7971   -3.2745 H   0  0  0  0  0  0  0  0  0  0  0  0
    6.9680   -1.5420   -5.4802 H   0  0  0  0  0  0  0  0  0  0  0  0
    6.7049    0.5766   -6.7470 H   0  0  0  0  0  0  0  0  0  0  0  0
    5.3655    2.4098   -5.8107 H   0  0  0  0  0  0  0  0  0  0  0  0
    5.3880    4.0235   -4.2156 H   0  0  0  0  0  0  0  0  0  0  0  0
    3.9090    4.5654   -3.4851 H   0  0  0  0  0  0  0  0  0  0  0  0
  1  2  1  0  0  0  0
  1 32  1  0  0  0  0
  1 33  1  0  0  0  0
  1 34  1  0  0  0  0
  2  3  1  0  0  0  0
  2 14  1  0  0  0  0
  3  4  1  0  0  0  0
  3 35  1  0  0  0  0
  3 36  1  0  0  0  0
  4  5  2  0  0  0  0
  4 13  1  0  0  0  0
  5  6  1  0  0  0  0
  5 37  1  0  0  0  0
  6  7  2  0  0  0  0
  6 38  1  0  0  0  0
  7  8  1  0  0  0  0
  7 39  1  0  0  0  0
  8  9  1  0  0  0  0
  8 13  2  0  0  0  0
  9 10  1  0  0  0  0
 10 11  1  0  0  0  0
 10 12  1  0  0  0  0
 10 40  1  0  0  0  0
 13 41  1  0  0  0  0
 14 15  2  0  0  0  0
 14 16  1  0  0  0  0
 16 17  2  0  0  0  0
 16 21  1  0  0  0  0
 17 18  1  0  0  0  0
 17 42  1  0  0  0  0
 18 19  2  0  0  0  0
 18 43  1  0  0  0  0
 19 20  1  0  0  0  0
 19 44  1  0  0  0  0
 20 21  2  0  0  0  0
 21 22  1  0  0  0  0
 22 23  1  0  0  0  0
 23 24  2  0  0  0  0
 23 28  1  0  0  0  0
 24 25  1  0  0  0  0
 24 45  1  0  0  0  0
 25 26  2  0  0  0  0
 25 46  1  0  0  0  0
 26 27  1  0  0  0  0
 26 47  1  0  0  0  0
 27 28  2  0  0  0  0
 27 48  1  0  0  0  0
 28 29  1  0  0  0  0
 29 30  1  0  0  0  0
 29 31  2  0  0  0  0
 30 49  1  0  0  0  0
 30 50  1  0  0  0  0
M  END
$$$$
