
 OpenBabel01122422463D

 48 51  0  0  0  0  0  0  0  0999 V2000
    3.6661   -0.3421   -0.1522 C   0  0  0  0  0  0  0  0  0  0  0  0
    2.2122    0.0281   -0.1451 C   0  0  0  0  0  0  0  0  0  0  0  0
    1.8242    1.3580   -0.0217 C   0  0  0  0  0  0  0  0  0  0  0  0
    0.4699    1.6815   -0.0034 C   0  0  0  0  0  0  0  0  0  0  0  0
   -0.5141    0.7074   -0.0466 C   0  0  0  0  0  0  0  0  0  0  0  0
   -1.7801    1.1388   -0.0191 N   0  0  0  0  0  0  0  0  0  0  0  0
   -2.7987    0.2517   -0.0390 C   0  0  0  0  0  0  0  0  0  0  0  0
   -4.1532    0.8360   -0.0259 C   0  0  0  0  0  0  0  0  0  0  0  0
   -5.2471    0.1979   -0.6369 C   0  0  0  0  0  0  0  0  0  0  0  0
   -6.5299    0.7514   -0.5848 C   0  0  0  0  0  0  0  0  0  0  0  0
   -6.7422    1.9604    0.0709 C   0  0  0  0  0  0  0  0  0  0  0  0
   -5.6733    2.6208    0.6667 C   0  0  0  0  0  0  0  0  0  0  0  0
   -4.3931    2.0653    0.6143 C   0  0  0  0  0  0  0  0  0  0  0  0
   -2.5619   -1.1085   -0.0195 C   0  0  0  0  0  0  0  0  0  0  0  0
   -1.2445   -1.5794   -0.0120 C   0  0  0  0  0  0  0  0  0  0  0  0
   -1.0744   -3.0699    0.1135 C   0  0  0  0  0  0  0  0  0  0  0  0
   -0.2163   -3.6760   -0.5101 O   0  0  0  0  0  0  0  0  0  0  0  0
   -1.9848   -3.6974    0.9497 N   0  0  0  0  0  0  0  0  0  0  0  0
   -2.0246   -5.1408    1.1701 C   0  0  0  0  0  0  0  0  0  0  0  0
   -3.4423   -5.6438    1.3852 C   0  0  0  0  0  0  0  0  0  0  0  0
   -4.4193   -5.5611    0.3965 C   0  0  0  0  0  0  0  0  0  0  0  0
   -4.1850   -5.2052   -0.9049 O   0  0  0  0  0  0  0  0  0  0  0  0
   -5.7403   -5.8498    0.7369 C   0  0  0  0  0  0  0  0  0  0  0  0
   -6.7414   -5.6848   -0.1799 O   0  0  0  0  0  0  0  0  0  0  0  0
   -6.0646   -6.3005    1.9936 C   0  0  0  0  0  0  0  0  0  0  0  0
   -5.0279   -6.4521    2.8964 C   0  0  0  0  0  0  0  0  0  0  0  0
   -3.7398   -6.1106    2.6314 N   0  0  0  0  0  0  0  0  0  0  0  0
   -0.1618   -0.6582   -0.0961 C   0  0  0  0  0  0  0  0  0  0  0  0
    1.2214   -0.9706   -0.1927 C   0  0  0  0  0  0  0  0  0  0  0  0
    4.3043    0.5369   -0.2929 H   0  0  0  0  0  0  0  0  0  0  0  0
    3.8828   -1.0420   -0.9656 H   0  0  0  0  0  0  0  0  0  0  0  0
    3.9298   -0.8041    0.8043 H   0  0  0  0  0  0  0  0  0  0  0  0
    2.5617    2.1528    0.0523 H   0  0  0  0  0  0  0  0  0  0  0  0
    0.1750    2.7278    0.0696 H   0  0  0  0  0  0  0  0  0  0  0  0
   -5.1159   -0.7369   -1.1780 H   0  0  0  0  0  0  0  0  0  0  0  0
   -7.3613    0.2372   -1.0594 H   0  0  0  0  0  0  0  0  0  0  0  0
   -7.7395    2.3902    0.1123 H   0  0  0  0  0  0  0  0  0  0  0  0
   -5.8290    3.5688    1.1759 H   0  0  0  0  0  0  0  0  0  0  0  0
   -3.5704    2.5988    1.0888 H   0  0  0  0  0  0  0  0  0  0  0  0
   -3.3976   -1.8019    0.0003 H   0  0  0  0  0  0  0  0  0  0  0  0
   -2.4803   -3.1372    1.6332 H   0  0  0  0  0  0  0  0  0  0  0  0
   -1.4294   -5.3328    2.0700 H   0  0  0  0  0  0  0  0  0  0  0  0
   -1.5515   -5.6735    0.3393 H   0  0  0  0  0  0  0  0  0  0  0  0
   -3.2422   -5.3585   -1.1023 H   0  0  0  0  0  0  0  0  0  0  0  0
   -6.2976   -5.3511   -0.9846 H   0  0  0  0  0  0  0  0  0  0  0  0
   -7.0899   -6.5336    2.2695 H   0  0  0  0  0  0  0  0  0  0  0  0
   -5.2085   -6.8547    3.8908 H   0  0  0  0  0  0  0  0  0  0  0  0
    1.5375   -2.0065   -0.3088 H   0  0  0  0  0  0  0  0  0  0  0  0
  1  2  1  0  0  0  0
  1 30  1  0  0  0  0
  1 31  1  0  0  0  0
  1 32  1  0  0  0  0
  2  3  2  0  0  0  0
  2 29  1  0  0  0  0
  3  4  1  0  0  0  0
  3 33  1  0  0  0  0
  4  5  2  0  0  0  0
  4 34  1  0  0  0  0
  5  6  1  0  0  0  0
  5 28  1  0  0  0  0
  6  7  2  0  0  0  0
  7  8  1  0  0  0  0
  7 14  1  0  0  0  0
  8  9  2  0  0  0  0
  8 13  1  0  0  0  0
  9 10  1  0  0  0  0
  9 35  1  0  0  0  0
 10 11  2  0  0  0  0
 10 36  1  0  0  0  0
 11 12  1  0  0  0  0
 11 37  1  0  0  0  0
 12 13  2  0  0  0  0
 12 38  1  0  0  0  0
 13 39  1  0  0  0  0
 14 15  2  0  0  0  0
 14 40  1  0  0  0  0
 15 16  1  0  0  0  0
 15 28  1  0  0  0  0
 16 17  2  0  0  0  0
 16 18  1  0  0  0  0
 18 19  1  0  0  0  0
 18 41  1  0  0  0  0
 19 20  1  0  0  0  0
 19 42  1  0  0  0  0
 19 43  1  0  0  0  0
 20 21  2  0  0  0  0
 20 27  1  0  0  0  0
 21 22  1  0  0  0  0
 21 23  1  0  0  0  0
 22 44  1  0  0  0  0
 23 24  1  0  0  0  0
 23 25  2  0  0  0  0
 24 45  1  0  0  0  0
 25 26  1  0  0  0  0
 25 46  1  0  0  0  0
 26 27  2  0  0  0  0
 26 47  1  0  0  0  0
 28 29  2  0  0  0  0
 29 48  1  0  0  0  0
M  END
$$$$
