
 OpenBabel01122422503D

 45 48  0  0  0  0  0  0  0  0999 V2000
    5.7557   -1.1853   -0.4848 C   0  0  0  0  0  0  0  0  0  0  0  0
    4.4914   -0.4508   -0.2375 C   0  0  0  0  0  0  0  0  0  0  0  0
    4.3631    0.9239   -0.2267 C   0  0  0  0  0  0  0  0  0  0  0  0
    3.0505    1.2106    0.0566 N   0  0  0  0  0  0  0  0  0  0  0  0
    2.4495    2.4929    0.1786 C   0  0  0  0  0  0  0  0  0  0  0  0
    3.1777    3.6563   -0.1037 C   0  0  0  0  0  0  0  0  0  0  0  0
    2.5763    4.9085    0.0298 C   0  0  0  0  0  0  0  0  0  0  0  0
    1.2515    5.0074    0.4488 C   0  0  0  0  0  0  0  0  0  0  0  0
    0.5195    3.8541    0.7275 C   0  0  0  0  0  0  0  0  0  0  0  0
    1.1110    2.5971    0.5888 C   0  0  0  0  0  0  0  0  0  0  0  0
    2.3354    0.0825    0.2269 N   0  0  0  0  0  0  0  0  0  0  0  0
    3.1776   -0.9286    0.0287 C   0  0  0  0  0  0  0  0  0  0  0  0
    2.8007   -2.2578    0.0612 N   0  0  0  0  0  0  0  0  0  0  0  0
    1.5080   -2.7026    0.3092 C   0  0  0  0  0  0  0  0  0  0  0  0
    0.5349   -2.0312    0.6286 O   0  0  0  0  0  0  0  0  0  0  0  0
    1.3000   -4.2140    0.1423 C   0  0  0  0  0  0  0  0  0  0  0  0
    0.1087   -4.6956    0.4022 N   0  0  0  0  0  0  0  0  0  0  0  0
   -0.1132   -6.0455    0.2348 N   0  0  0  0  0  0  0  0  0  0  0  0
   -1.4658   -6.4907    0.4099 C   0  0  0  0  0  0  0  0  0  0  0  0
   -2.5501   -5.6305    0.1599 C   0  0  0  0  0  0  0  0  0  0  0  0
   -3.8683   -6.1087    0.1584 C   0  0  0  0  0  0  0  0  0  0  0  0
   -4.1340   -7.4472    0.4426 C   0  0  0  0  0  0  0  0  0  0  0  0
   -3.0858   -8.2998    0.7697 C   0  0  0  0  0  0  0  0  0  0  0  0
   -1.7764   -7.8200    0.7619 C   0  0  0  0  0  0  0  0  0  0  0  0
   -0.8037   -8.6807    1.1056 F   0  0  0  0  0  0  0  0  0  0  0  0
    0.8420   -6.8724   -0.3263 C   0  0  0  0  0  0  0  0  0  0  0  0
    2.0823   -6.5173   -0.6421 C   0  0  0  0  0  0  0  0  0  0  0  0
    2.4117   -5.1221   -0.3441 C   0  0  0  0  0  0  0  0  0  0  0  0
    3.5453   -4.6846   -0.5017 O   0  0  0  0  0  0  0  0  0  0  0  0
    6.6129   -0.5028   -0.4257 H   0  0  0  0  0  0  0  0  0  0  0  0
    5.7564   -1.6323   -1.4828 H   0  0  0  0  0  0  0  0  0  0  0  0
    5.9095   -1.9695    0.2613 H   0  0  0  0  0  0  0  0  0  0  0  0
    5.1024    1.6934   -0.3809 H   0  0  0  0  0  0  0  0  0  0  0  0
    4.2083    3.6249   -0.4419 H   0  0  0  0  0  0  0  0  0  0  0  0
    3.1450    5.8069   -0.1955 H   0  0  0  0  0  0  0  0  0  0  0  0
    0.7887    5.9845    0.5568 H   0  0  0  0  0  0  0  0  0  0  0  0
   -0.5142    3.9312    1.0561 H   0  0  0  0  0  0  0  0  0  0  0  0
    0.5225    1.7072    0.8124 H   0  0  0  0  0  0  0  0  0  0  0  0
    3.5242   -2.9368   -0.1649 H   0  0  0  0  0  0  0  0  0  0  0  0
   -2.3718   -4.5855   -0.0876 H   0  0  0  0  0  0  0  0  0  0  0  0
   -4.6861   -5.4344   -0.0863 H   0  0  0  0  0  0  0  0  0  0  0  0
   -5.1538   -7.8225    0.4148 H   0  0  0  0  0  0  0  0  0  0  0  0
   -3.2709   -9.3401    1.0184 H   0  0  0  0  0  0  0  0  0  0  0  0
    0.5104   -7.8858   -0.5462 H   0  0  0  0  0  0  0  0  0  0  0  0
    2.8110   -7.1677   -1.0958 H   0  0  0  0  0  0  0  0  0  0  0  0
  1  2  1  0  0  0  0
  1 30  1  0  0  0  0
  1 31  1  0  0  0  0
  1 32  1  0  0  0  0
  2  3  2  0  0  0  0
  2 12  1  0  0  0  0
  3  4  1  0  0  0  0
  3 33  1  0  0  0  0
  4  5  1  0  0  0  0
  4 11  1  0  0  0  0
  5  6  2  0  0  0  0
  5 10  1  0  0  0  0
  6  7  1  0  0  0  0
  6 34  1  0  0  0  0
  7  8  2  0  0  0  0
  7 35  1  0  0  0  0
  8  9  1  0  0  0  0
  8 36  1  0  0  0  0
  9 10  2  0  0  0  0
  9 37  1  0  0  0  0
 10 38  1  0  0  0  0
 11 12  2  0  0  0  0
 12 13  1  0  0  0  0
 13 14  1  0  0  0  0
 13 39  1  0  0  0  0
 14 15  2  0  0  0  0
 14 16  1  0  0  0  0
 16 17  2  0  0  0  0
 16 28  1  0  0  0  0
 17 18  1  0  0  0  0
 18 19  1  0  0  0  0
 18 26  1  0  0  0  0
 19 20  2  0  0  0  0
 19 24  1  0  0  0  0
 20 21  1  0  0  0  0
 20 40  1  0  0  0  0
 21 22  2  0  0  0  0
 21 41  1  0  0  0  0
 22 23  1  0  0  0  0
 22 42  1  0  0  0  0
 23 24  2  0  0  0  0
 23 43  1  0  0  0  0
 24 25  1  0  0  0  0
 26 27  2  0  0  0  0
 26 44  1  0  0  0  0
 27 28  1  0  0  0  0
 27 45  1  0  0  0  0
 28 29  2  0  0  0  0
M  END
$$$$
