
 OpenBabel01122422503D

 45 48  0  0  0  0  0  0  0  0999 V2000
    1.9950    0.2156   -0.5758 C   0  0  0  0  0  0  0  0  0  0  0  0
    0.6220   -0.0070   -0.1887 N   0  0  0  0  0  0  0  0  0  0  0  0
   -0.1597    0.9734    0.3521 C   0  0  0  0  0  0  0  0  0  0  0  0
   -1.3895    0.5750    0.5120 N   0  0  0  0  0  0  0  0  0  0  0  0
   -1.4197   -0.7203    0.0846 C   0  0  0  0  0  0  0  0  0  0  0  0
   -2.5804   -1.4658    0.1250 N   0  0  0  0  0  0  0  0  0  0  0  0
   -3.8381   -0.9070    0.2837 C   0  0  0  0  0  0  0  0  0  0  0  0
   -4.1397    0.2701    0.4163 O   0  0  0  0  0  0  0  0  0  0  0  0
   -4.9714   -1.9202    0.2593 C   0  0  0  0  0  0  0  0  0  0  0  0
   -4.7432   -3.0884    0.8054 N   0  0  0  0  0  0  0  0  0  0  0  0
   -5.7713   -4.0116    0.8130 N   0  0  0  0  0  0  0  0  0  0  0  0
   -5.5025   -5.2211    1.5283 C   0  0  0  0  0  0  0  0  0  0  0  0
   -6.1162   -6.4361    1.1792 C   0  0  0  0  0  0  0  0  0  0  0  0
   -5.8762   -7.5880    1.9233 C   0  0  0  0  0  0  0  0  0  0  0  0
   -6.4748   -8.7331    1.5694 F   0  0  0  0  0  0  0  0  0  0  0  0
   -5.0329   -7.5710    3.0253 C   0  0  0  0  0  0  0  0  0  0  0  0
   -4.4033   -6.3830    3.3822 C   0  0  0  0  0  0  0  0  0  0  0  0
   -4.6290   -5.2228    2.6336 C   0  0  0  0  0  0  0  0  0  0  0  0
   -7.0334   -3.7207    0.3325 C   0  0  0  0  0  0  0  0  0  0  0  0
   -7.3868   -2.5723   -0.2408 C   0  0  0  0  0  0  0  0  0  0  0  0
   -6.3152   -1.5814   -0.3722 C   0  0  0  0  0  0  0  0  0  0  0  0
   -6.5016   -0.5528   -1.0012 O   0  0  0  0  0  0  0  0  0  0  0  0
   -0.1616   -1.1430   -0.3531 C   0  0  0  0  0  0  0  0  0  0  0  0
    0.2869   -2.4159   -0.9517 C   0  0  0  0  0  0  0  0  0  0  0  0
   -0.5787   -3.1740   -1.7542 C   0  0  0  0  0  0  0  0  0  0  0  0
   -0.1755   -4.4014   -2.2944 C   0  0  0  0  0  0  0  0  0  0  0  0
    1.1177   -4.8678   -2.0828 C   0  0  0  0  0  0  0  0  0  0  0  0
    2.0023   -4.1168   -1.3181 C   0  0  0  0  0  0  0  0  0  0  0  0
    1.5769   -2.9195   -0.7370 C   0  0  0  0  0  0  0  0  0  0  0  0
    2.2678    1.2586   -0.3911 H   0  0  0  0  0  0  0  0  0  0  0  0
    2.1051   -0.0098   -1.6380 H   0  0  0  0  0  0  0  0  0  0  0  0
    2.6464   -0.4084    0.0391 H   0  0  0  0  0  0  0  0  0  0  0  0
    0.2114    1.9699    0.5947 H   0  0  0  0  0  0  0  0  0  0  0  0
   -2.5056   -2.4680    0.0177 H   0  0  0  0  0  0  0  0  0  0  0  0
   -6.7694   -6.5143    0.3171 H   0  0  0  0  0  0  0  0  0  0  0  0
   -4.8721   -8.4803    3.5951 H   0  0  0  0  0  0  0  0  0  0  0  0
   -3.7455   -6.3499    4.2464 H   0  0  0  0  0  0  0  0  0  0  0  0
   -4.1462   -4.2980    2.9429 H   0  0  0  0  0  0  0  0  0  0  0  0
   -7.7839   -4.4901    0.4813 H   0  0  0  0  0  0  0  0  0  0  0  0
   -8.3774   -2.3414   -0.6033 H   0  0  0  0  0  0  0  0  0  0  0  0
   -1.5805   -2.8233   -1.9866 H   0  0  0  0  0  0  0  0  0  0  0  0
   -0.8731   -4.9897   -2.8862 H   0  0  0  0  0  0  0  0  0  0  0  0
    1.4356   -5.8146   -2.5076 H   0  0  0  0  0  0  0  0  0  0  0  0
    3.0183   -4.4663   -1.1560 H   0  0  0  0  0  0  0  0  0  0  0  0
    2.2853   -2.4092   -0.0966 H   0  0  0  0  0  0  0  0  0  0  0  0
  1  2  1  0  0  0  0
  1 30  1  0  0  0  0
  1 31  1  0  0  0  0
  1 32  1  0  0  0  0
  2  3  1  0  0  0  0
  2 23  1  0  0  0  0
  3  4  2  0  0  0  0
  3 33  1  0  0  0  0
  4  5  1  0  0  0  0
  5  6  1  0  0  0  0
  5 23  2  0  0  0  0
  6  7  1  0  0  0  0
  6 34  1  0  0  0  0
  7  8  2  0  0  0  0
  7  9  1  0  0  0  0
  9 10  2  0  0  0  0
  9 21  1  0  0  0  0
 10 11  1  0  0  0  0
 11 12  1  0  0  0  0
 11 19  1  0  0  0  0
 12 13  2  0  0  0  0
 12 18  1  0  0  0  0
 13 14  1  0  0  0  0
 13 35  1  0  0  0  0
 14 15  1  0  0  0  0
 14 16  2  0  0  0  0
 16 17  1  0  0  0  0
 16 36  1  0  0  0  0
 17 18  2  0  0  0  0
 17 37  1  0  0  0  0
 18 38  1  0  0  0  0
 19 20  2  0  0  0  0
 19 39  1  0  0  0  0
 20 21  1  0  0  0  0
 20 40  1  0  0  0  0
 21 22  2  0  0  0  0
 23 24  1  0  0  0  0
 24 25  2  0  0  0  0
 24 29  1  0  0  0  0
 25 26  1  0  0  0  0
 25 41  1  0  0  0  0
 26 27  2  0  0  0  0
 26 42  1  0  0  0  0
 27 28  1  0  0  0  0
 27 43  1  0  0  0  0
 28 29  2  0  0  0  0
 28 44  1  0  0  0  0
 29 45  1  0  0  0  0
M  END
$$$$
