
 OpenBabel01122422503D

 48 51  0  0  0  0  0  0  0  0999 V2000
    0.6204   -0.2048    1.1564 O   0  0  0  0  0  0  0  0  0  0  0  0
    1.8221    0.0010    1.2050 C   0  0  0  0  0  0  0  0  0  0  0  0
    2.3516    1.2356    1.3352 O   0  0  0  0  0  0  0  0  0  0  0  0
    2.8236   -1.0789    1.0638 C   0  0  0  0  0  0  0  0  0  0  0  0
    2.5124   -2.1726    0.2523 C   0  0  0  0  0  0  0  0  0  0  0  0
    3.4451   -3.1912    0.0806 C   0  0  0  0  0  0  0  0  0  0  0  0
    4.6964   -3.1004    0.6975 C   0  0  0  0  0  0  0  0  0  0  0  0
    5.0526   -1.9941    1.4958 C   0  0  0  0  0  0  0  0  0  0  0  0
    6.4392   -1.8017    1.9898 C   0  0  0  0  0  0  0  0  0  0  0  0
    7.5308   -2.2375    1.2155 C   0  0  0  0  0  0  0  0  0  0  0  0
    8.8473   -1.9671    1.5851 C   0  0  0  0  0  0  0  0  0  0  0  0
    9.1111   -1.2246    2.7327 C   0  0  0  0  0  0  0  0  0  0  0  0
    8.0588   -0.7654    3.5315 C   0  0  0  0  0  0  0  0  0  0  0  0
    8.3421    0.1576    4.6919 C   0  0  0  0  0  0  0  0  0  0  0  0
    7.8379   -0.3506    5.9398 N   0  0  0  0  0  0  0  0  0  0  0  0
    6.9035    0.3383    6.6876 C   0  0  0  0  0  0  0  0  0  0  0  0
    6.4376    1.4179    6.3307 O   0  0  0  0  0  0  0  0  0  0  0  0
    6.4968   -0.3444    7.9353 C   0  0  0  0  0  0  0  0  0  0  0  0
    6.9985   -1.5342    8.3337 N   0  0  0  0  0  0  0  0  0  0  0  0
    6.2801   -1.7937    9.4608 N   0  0  0  0  0  0  0  0  0  0  0  0
    6.4297   -2.9959   10.2044 C   0  0  0  0  0  0  0  0  0  0  0  0
    7.3809   -3.9468    9.8120 C   0  0  0  0  0  0  0  0  0  0  0  0
    7.5255   -5.1323   10.5362 C   0  0  0  0  0  0  0  0  0  0  0  0
    6.7214   -5.3802   11.6471 C   0  0  0  0  0  0  0  0  0  0  0  0
    5.7718   -4.4409   12.0413 C   0  0  0  0  0  0  0  0  0  0  0  0
    5.6246   -3.2484   11.3278 C   0  0  0  0  0  0  0  0  0  0  0  0
    5.4251   -0.7467    9.7079 C   0  0  0  0  0  0  0  0  0  0  0  0
    5.5407    0.1693    8.7802 N   0  0  0  0  0  0  0  0  0  0  0  0
    6.7344   -1.0820    3.1662 C   0  0  0  0  0  0  0  0  0  0  0  0
    4.0682   -1.0121    1.7075 C   0  0  0  0  0  0  0  0  0  0  0  0
    3.3176    1.2911    1.1958 H   0  0  0  0  0  0  0  0  0  0  0  0
    1.5485   -2.2294   -0.2515 H   0  0  0  0  0  0  0  0  0  0  0  0
    3.2113   -4.0446   -0.5517 H   0  0  0  0  0  0  0  0  0  0  0  0
    5.4058   -3.9089    0.5294 H   0  0  0  0  0  0  0  0  0  0  0  0
    7.3687   -2.7596    0.2747 H   0  0  0  0  0  0  0  0  0  0  0  0
    9.6652   -2.3024    0.9527 H   0  0  0  0  0  0  0  0  0  0  0  0
   10.1407   -0.9867    2.9804 H   0  0  0  0  0  0  0  0  0  0  0  0
    7.9194    1.1435    4.4642 H   0  0  0  0  0  0  0  0  0  0  0  0
    9.4210    0.2958    4.8220 H   0  0  0  0  0  0  0  0  0  0  0  0
    8.1845   -1.2247    6.3202 H   0  0  0  0  0  0  0  0  0  0  0  0
    8.0187   -3.7813    8.9454 H   0  0  0  0  0  0  0  0  0  0  0  0
    8.2645   -5.8708   10.2293 H   0  0  0  0  0  0  0  0  0  0  0  0
    6.8325   -6.3068   12.2069 H   0  0  0  0  0  0  0  0  0  0  0  0
    5.1412   -4.6363   12.9084 H   0  0  0  0  0  0  0  0  0  0  0  0
    4.8676   -2.5527   11.6744 H   0  0  0  0  0  0  0  0  0  0  0  0
    4.7496   -0.7034   10.5458 H   0  0  0  0  0  0  0  0  0  0  0  0
    5.9284   -0.7188    3.8018 H   0  0  0  0  0  0  0  0  0  0  0  0
    4.2806   -0.1725    2.3636 H   0  0  0  0  0  0  0  0  0  0  0  0
  1  2  2  0  0  0  0
  2  3  1  0  0  0  0
  2  4  1  0  0  0  0
  3 31  1  0  0  0  0
  4  5  2  0  0  0  0
  4 30  1  0  0  0  0
  5  6  1  0  0  0  0
  5 32  1  0  0  0  0
  6  7  2  0  0  0  0
  6 33  1  0  0  0  0
  7  8  1  0  0  0  0
  7 34  1  0  0  0  0
  8  9  1  0  0  0  0
  8 30  2  0  0  0  0
  9 10  2  0  0  0  0
  9 29  1  0  0  0  0
 10 11  1  0  0  0  0
 10 35  1  0  0  0  0
 11 12  2  0  0  0  0
 11 36  1  0  0  0  0
 12 13  1  0  0  0  0
 12 37  1  0  0  0  0
 13 14  1  0  0  0  0
 13 29  2  0  0  0  0
 14 15  1  0  0  0  0
 14 38  1  0  0  0  0
 14 39  1  0  0  0  0
 15 16  1  0  0  0  0
 15 40  1  0  0  0  0
 16 17  2  0  0  0  0
 16 18  1  0  0  0  0
 18 19  2  0  0  0  0
 18 28  1  0  0  0  0
 19 20  1  0  0  0  0
 20 21  1  0  0  0  0
 20 27  1  0  0  0  0
 21 22  2  0  0  0  0
 21 26  1  0  0  0  0
 22 23  1  0  0  0  0
 22 41  1  0  0  0  0
 23 24  2  0  0  0  0
 23 42  1  0  0  0  0
 24 25  1  0  0  0  0
 24 43  1  0  0  0  0
 25 26  2  0  0  0  0
 25 44  1  0  0  0  0
 26 45  1  0  0  0  0
 27 28  2  0  0  0  0
 27 46  1  0  0  0  0
 29 47  1  0  0  0  0
 30 48  1  0  0  0  0
M  END
$$$$
