
 OpenBabel01122422503D

 48 51  0  0  1  0  0  0  0  0999 V2000
    1.3680   -0.3302    0.6547 C   0  0  0  0  0  0  0  0  0  0  0  0
    2.8115   -0.1913    0.2740 C   0  0  0  0  0  0  0  0  0  0  0  0
    3.6140   -1.3022    0.0545 C   0  0  0  0  0  0  0  0  0  0  0  0
    4.9555   -1.1269   -0.2802 C   0  0  0  0  0  0  0  0  0  0  0  0
    5.6934   -2.2343   -0.4744 F   0  0  0  0  0  0  0  0  0  0  0  0
    5.5474    0.1290   -0.4213 C   0  0  0  0  0  0  0  0  0  0  0  0
    6.8571    0.2094   -0.7295 N   0  0  0  0  0  0  0  0  0  0  0  0
    7.3908    1.4251   -0.8792 C   0  0  0  0  0  0  0  0  0  0  0  0
    8.7074    1.4015   -1.1962 O   0  0  0  0  0  0  0  0  0  0  0  0
    6.7195    2.6140   -0.7619 C   0  0  0  0  0  0  0  0  0  0  0  0
    5.3660    2.5445   -0.4415 C   0  0  0  0  0  0  0  0  0  0  0  0
    4.5735    3.8125   -0.4219 C   0  0  0  0  0  0  0  0  0  0  0  0
    3.4135    3.8240   -0.8221 O   0  0  0  0  0  0  0  0  0  0  0  0
    5.2011    4.9515    0.0236 N   0  0  0  0  0  0  0  0  0  0  0  0
    4.5000    6.2211    0.0666 C   0  0  3  0  0  0  0  0  0  0  0  0
    3.8631    6.4857    1.4254 C   0  0  0  0  0  0  0  0  0  0  0  0
    4.6121    6.4856    2.6189 C   0  0  0  0  0  0  0  0  0  0  0  0
    3.9957    6.7204    3.8506 C   0  0  0  0  0  0  0  0  0  0  0  0
    2.6273    6.9508    3.8998 C   0  0  0  0  0  0  0  0  0  0  0  0
    2.0361    7.1734    5.0813 F   0  0  0  0  0  0  0  0  0  0  0  0
    1.8620    6.9504    2.7407 C   0  0  0  0  0  0  0  0  0  0  0  0
    2.4765    6.7170    1.5080 C   0  0  0  0  0  0  0  0  0  0  0  0
    5.4586    7.3624   -0.1897 C   0  0  0  0  0  0  0  0  0  0  0  0
    6.7809    7.2659    0.0632 N   0  0  0  0  0  0  0  0  0  0  0  0
    7.2719    8.4607   -0.3240 N   0  0  0  0  0  0  0  0  0  0  0  0
    8.6879    8.7298   -0.2493 C   0  0  0  0  0  0  0  0  0  0  0  0
    6.3239    9.3121   -0.8080 C   0  0  0  0  0  0  0  0  0  0  0  0
    5.1372    8.6244   -0.7578 C   0  0  0  0  0  0  0  0  0  0  0  0
    4.7401    1.2759   -0.2409 C   0  0  0  0  0  0  0  0  0  0  0  0
    3.3797    1.0812    0.1307 C   0  0  0  0  0  0  0  0  0  0  0  0
    1.0624   -1.3807    0.6966 H   0  0  0  0  0  0  0  0  0  0  0  0
    0.7336    0.1745   -0.0812 H   0  0  0  0  0  0  0  0  0  0  0  0
    1.1957    0.1111    1.6416 H   0  0  0  0  0  0  0  0  0  0  0  0
    3.2219   -2.3115    0.1416 H   0  0  0  0  0  0  0  0  0  0  0  0
    8.8621    0.4386   -1.2198 H   0  0  0  0  0  0  0  0  0  0  0  0
    7.2376    3.5441   -0.9561 H   0  0  0  0  0  0  0  0  0  0  0  0
    6.1597    4.9757    0.3448 H   0  0  0  0  0  0  0  0  0  0  0  0
    3.7336    6.2307   -0.7184 H   0  0  0  0  0  0  0  0  0  0  0  0
    5.6859    6.3119    2.5909 H   0  0  0  0  0  0  0  0  0  0  0  0
    4.5743    6.7256    4.7685 H   0  0  0  0  0  0  0  0  0  0  0  0
    0.7926    7.1264    2.8034 H   0  0  0  0  0  0  0  0  0  0  0  0
    1.8627    6.7064    0.6091 H   0  0  0  0  0  0  0  0  0  0  0  0
    9.2117    7.8437    0.1168 H   0  0  0  0  0  0  0  0  0  0  0  0
    8.8439    9.5695    0.4323 H   0  0  0  0  0  0  0  0  0  0  0  0
    9.0399    8.9825   -1.2531 H   0  0  0  0  0  0  0  0  0  0  0  0
    6.5689   10.3069   -1.1537 H   0  0  0  0  0  0  0  0  0  0  0  0
    4.1680    8.9760   -1.0832 H   0  0  0  0  0  0  0  0  0  0  0  0
    2.7366    1.9413    0.3154 H   0  0  0  0  0  0  0  0  0  0  0  0
  1  2  1  0  0  0  0
  1 31  1  0  0  0  0
  1 32  1  0  0  0  0
  1 33  1  0  0  0  0
  2  3  2  0  0  0  0
  2 30  1  0  0  0  0
  3  4  1  0  0  0  0
  3 34  1  0  0  0  0
  4  5  1  0  0  0  0
  4  6  2  0  0  0  0
  6  7  1  0  0  0  0
  6 29  1  0  0  0  0
  7  8  2  0  0  0  0
  8  9  1  0  0  0  0
  8 10  1  0  0  0  0
  9 35  1  0  0  0  0
 10 11  2  0  0  0  0
 10 36  1  0  0  0  0
 11 12  1  0  0  0  0
 11 29  1  0  0  0  0
 12 13  2  0  0  0  0
 12 14  1  0  0  0  0
 14 15  1  0  0  0  0
 14 37  1  0  0  0  0
 15 16  1  0  0  0  0
 15 23  1  0  0  0  0
 15 38  1  0  0  0  0
 16 17  2  0  0  0  0
 16 22  1  0  0  0  0
 17 18  1  0  0  0  0
 17 39  1  0  0  0  0
 18 19  2  0  0  0  0
 18 40  1  0  0  0  0
 19 20  1  0  0  0  0
 19 21  1  0  0  0  0
 21 22  2  0  0  0  0
 21 41  1  0  0  0  0
 22 42  1  0  0  0  0
 23 24  2  0  0  0  0
 23 28  1  0  0  0  0
 24 25  1  0  0  0  0
 25 26  1  0  0  0  0
 25 27  1  0  0  0  0
 26 43  1  0  0  0  0
 26 44  1  0  0  0  0
 26 45  1  0  0  0  0
 27 28  2  0  0  0  0
 27 46  1  0  0  0  0
 28 47  1  0  0  0  0
 29 30  2  0  0  0  0
 30 48  1  0  0  0  0
M  END
$$$$
