
 OpenBabel01122422503D

 54 57  0  0  1  0  0  0  0  0999 V2000
    1.4664   -0.3365    1.3362 C   0  0  0  0  0  0  0  0  0  0  0  0
    2.8664   -0.0793    1.2703 O   0  0  0  0  0  0  0  0  0  0  0  0
    3.2080    1.2116    0.9700 C   0  0  0  0  0  0  0  0  0  0  0  0
    2.4051    2.3264    1.2102 C   0  0  0  0  0  0  0  0  0  0  0  0
    2.8379    3.5949    0.8266 C   0  0  0  0  0  0  0  0  0  0  0  0
    4.0932    3.7595    0.2460 C   0  0  0  0  0  0  0  0  0  0  0  0
    4.9504    2.6623    0.0872 C   0  0  0  0  0  0  0  0  0  0  0  0
    6.3782    2.8615   -0.3791 C   0  0  0  0  0  0  0  0  0  0  0  0
    7.1839    3.7818    0.5722 C   0  0  3  0  0  0  0  0  0  0  0  0
    7.2207    3.2806    1.9421 N   0  0  0  0  0  0  0  0  0  0  0  0
    7.3072    4.1519    3.0042 C   0  0  0  0  0  0  0  0  0  0  0  0
    7.3174    5.3705    2.8610 O   0  0  0  0  0  0  0  0  0  0  0  0
    7.3930    3.5543    4.3224 C   0  0  0  0  0  0  0  0  0  0  0  0
    7.0526    2.2927    4.7852 C   0  0  0  0  0  0  0  0  0  0  0  0
    6.5632    1.1990    4.1300 N   0  0  0  0  0  0  0  0  0  0  0  0
    7.2302    2.3308    6.1831 N   0  0  0  0  0  0  0  0  0  0  0  0
    6.8338    1.3472    7.1547 C   0  0  0  0  0  0  0  0  0  0  0  0
    7.0158    1.6415    8.5093 C   0  0  0  0  0  0  0  0  0  0  0  0
    6.5886    0.7236    9.4659 C   0  0  0  0  0  0  0  0  0  0  0  0
    6.0002   -0.4636    9.0527 C   0  0  0  0  0  0  0  0  0  0  0  0
    5.8577   -0.6858    7.6923 C   0  0  0  0  0  0  0  0  0  0  0  0
    6.2509    0.1858    6.7335 N   0  0  0  0  0  0  0  0  0  0  0  0
    7.7848    3.5120    6.5834 N   0  0  0  0  0  0  0  0  0  0  0  0
    7.8442    4.2385    5.4710 C   0  0  0  0  0  0  0  0  0  0  0  0
    8.5931    4.0459    0.0686 C   0  0  0  0  0  0  0  0  0  0  0  0
    9.0011    5.3663   -0.1884 C   0  0  0  0  0  0  0  0  0  0  0  0
   10.3008    5.6416   -0.6133 C   0  0  0  0  0  0  0  0  0  0  0  0
   11.2111    4.6019   -0.7832 C   0  0  0  0  0  0  0  0  0  0  0  0
   10.8230    3.2879   -0.5279 C   0  0  0  0  0  0  0  0  0  0  0  0
    9.5227    3.0098   -0.1029 C   0  0  0  0  0  0  0  0  0  0  0  0
    4.4827    1.3839    0.4236 C   0  0  0  0  0  0  0  0  0  0  0  0
    1.3260   -1.4194    1.3969 H   0  0  0  0  0  0  0  0  0  0  0  0
    0.9526    0.0176    0.4344 H   0  0  0  0  0  0  0  0  0  0  0  0
    1.0278    0.1053    2.2360 H   0  0  0  0  0  0  0  0  0  0  0  0
    1.4430    2.2412    1.7037 H   0  0  0  0  0  0  0  0  0  0  0  0
    2.2038    4.4606    1.0003 H   0  0  0  0  0  0  0  0  0  0  0  0
    4.4099    4.7593   -0.0434 H   0  0  0  0  0  0  0  0  0  0  0  0
    6.3566    3.2895   -1.3905 H   0  0  0  0  0  0  0  0  0  0  0  0
    6.8706    1.8851   -0.4718 H   0  0  0  0  0  0  0  0  0  0  0  0
    6.6627    4.7477    0.6041 H   0  0  0  0  0  0  0  0  0  0  0  0
    7.4242    2.3053    2.1222 H   0  0  0  0  0  0  0  0  0  0  0  0
    5.9293    1.3403    3.3442 H   0  0  0  0  0  0  0  0  0  0  0  0
    6.2145    0.4412    4.7347 H   0  0  0  0  0  0  0  0  0  0  0  0
    7.4662    2.5764    8.8320 H   0  0  0  0  0  0  0  0  0  0  0  0
    6.7111    0.9412   10.5237 H   0  0  0  0  0  0  0  0  0  0  0  0
    5.6586   -1.1970    9.7751 H   0  0  0  0  0  0  0  0  0  0  0  0
    5.4029   -1.6030    7.3279 H   0  0  0  0  0  0  0  0  0  0  0  0
    8.2174    5.2545    5.5274 H   0  0  0  0  0  0  0  0  0  0  0  0
    8.3113    6.1949   -0.0343 H   0  0  0  0  0  0  0  0  0  0  0  0
   10.6049    6.6687   -0.7972 H   0  0  0  0  0  0  0  0  0  0  0  0
   12.2277    4.8175   -1.1001 H   0  0  0  0  0  0  0  0  0  0  0  0
   11.5388    2.4792   -0.6477 H   0  0  0  0  0  0  0  0  0  0  0  0
    9.2490    1.9795    0.1106 H   0  0  0  0  0  0  0  0  0  0  0  0
    5.1111    0.5096    0.2693 H   0  0  0  0  0  0  0  0  0  0  0  0
  1  2  1  0  0  0  0
  1 32  1  0  0  0  0
  1 33  1  0  0  0  0
  1 34  1  0  0  0  0
  2  3  1  0  0  0  0
  3  4  2  0  0  0  0
  3 31  1  0  0  0  0
  4  5  1  0  0  0  0
  4 35  1  0  0  0  0
  5  6  2  0  0  0  0
  5 36  1  0  0  0  0
  6  7  1  0  0  0  0
  6 37  1  0  0  0  0
  7  8  1  0  0  0  0
  7 31  2  0  0  0  0
  8  9  1  0  0  0  0
  8 38  1  0  0  0  0
  8 39  1  0  0  0  0
  9 10  1  0  0  0  0
  9 25  1  0  0  0  0
  9 40  1  0  0  0  0
 10 11  1  0  0  0  0
 10 41  1  0  0  0  0
 11 12  2  0  0  0  0
 11 13  1  0  0  0  0
 13 14  2  0  0  0  0
 13 24  1  0  0  0  0
 14 15  1  0  0  0  0
 14 16  1  0  0  0  0
 15 42  1  0  0  0  0
 15 43  1  0  0  0  0
 16 17  1  0  0  0  0
 16 23  1  0  0  0  0
 17 18  2  0  0  0  0
 17 22  1  0  0  0  0
 18 19  1  0  0  0  0
 18 44  1  0  0  0  0
 19 20  2  0  0  0  0
 19 45  1  0  0  0  0
 20 21  1  0  0  0  0
 20 46  1  0  0  0  0
 21 22  2  0  0  0  0
 21 47  1  0  0  0  0
 23 24  2  0  0  0  0
 24 48  1  0  0  0  0
 25 26  2  0  0  0  0
 25 30  1  0  0  0  0
 26 27  1  0  0  0  0
 26 49  1  0  0  0  0
 27 28  2  0  0  0  0
 27 50  1  0  0  0  0
 28 29  1  0  0  0  0
 28 51  1  0  0  0  0
 29 30  2  0  0  0  0
 29 52  1  0  0  0  0
 30 53  1  0  0  0  0
 31 54  1  0  0  0  0
M  END
$$$$
