
 OpenBabel01122422503D

 49 52  0  0  0  0  0  0  0  0999 V2000
    1.8159    3.6897   -0.5961 C   0  0  0  0  0  0  0  0  0  0  0  0
    3.1820    3.2574   -0.6994 N   0  0  0  0  0  0  0  0  0  0  0  0
    3.5105    1.9334   -0.8972 C   0  0  0  0  0  0  0  0  0  0  0  0
    2.6824    1.0360   -1.0101 O   0  0  0  0  0  0  0  0  0  0  0  0
    4.9820    1.6580   -0.9782 C   0  0  0  0  0  0  0  0  0  0  0  0
    5.4127    0.3645   -1.2375 C   0  0  0  0  0  0  0  0  0  0  0  0
    6.7753    0.1574   -1.4026 C   0  0  0  0  0  0  0  0  0  0  0  0
    7.3561   -1.0522   -1.7077 O   0  0  0  0  0  0  0  0  0  0  0  0
    6.6578   -2.0098   -2.4017 C   0  0  0  0  0  0  0  0  0  0  0  0
    6.8880   -3.3316   -2.0197 C   0  0  0  0  0  0  0  0  0  0  0  0
    6.2463   -4.3822   -2.6824 C   0  0  0  0  0  0  0  0  0  0  0  0
    5.3566   -4.1455   -3.7341 C   0  0  0  0  0  0  0  0  0  0  0  0
    4.6823   -5.1759   -4.4362 N   0  0  0  0  0  0  0  0  0  0  0  0
    4.9944   -6.5326   -4.4044 C   0  0  0  0  0  0  0  0  0  0  0  0
    5.8744   -7.0311   -3.7200 O   0  0  0  0  0  0  0  0  0  0  0  0
    4.2506   -7.3123   -5.3531 C   0  0  0  0  0  0  0  0  0  0  0  0
    2.8919   -7.4325   -5.5819 C   0  0  0  0  0  0  0  0  0  0  0  0
    2.6358   -8.2209   -6.6757 N   0  0  0  0  0  0  0  0  0  0  0  0
    3.8159   -8.5979   -7.1195 C   0  0  0  0  0  0  0  0  0  0  0  0
    4.1989   -9.3315   -8.2782 C   0  0  0  0  0  0  0  0  0  0  0  0
    5.5032   -9.5673   -8.5256 C   0  0  0  0  0  0  0  0  0  0  0  0
    6.5506   -9.1239   -7.6083 C   0  0  0  0  0  0  0  0  0  0  0  0
    7.9837   -9.4109   -7.9250 C   0  0  0  0  0  0  0  0  0  0  0  0
    6.1855   -8.4203   -6.5210 C   0  0  0  0  0  0  0  0  0  0  0  0
    4.8363   -8.1362   -6.2979 N   0  0  0  0  0  0  0  0  0  0  0  0
    5.1450   -2.8195   -4.1308 C   0  0  0  0  0  0  0  0  0  0  0  0
    5.8154   -1.7729   -3.4879 C   0  0  0  0  0  0  0  0  0  0  0  0
    5.6405   -0.5302   -3.9635 F   0  0  0  0  0  0  0  0  0  0  0  0
    7.6569    1.2162   -1.2034 C   0  0  0  0  0  0  0  0  0  0  0  0
    7.1365    2.4661   -0.9102 C   0  0  0  0  0  0  0  0  0  0  0  0
    5.8144    2.7219   -0.8080 N   0  0  0  0  0  0  0  0  0  0  0  0
    1.7954    4.7697   -0.4377 H   0  0  0  0  0  0  0  0  0  0  0  0
    1.3408    3.1771    0.2448 H   0  0  0  0  0  0  0  0  0  0  0  0
    1.2851    3.4347   -1.5177 H   0  0  0  0  0  0  0  0  0  0  0  0
    3.9528    3.9167   -0.6258 H   0  0  0  0  0  0  0  0  0  0  0  0
    4.6875   -0.4344   -1.3323 H   0  0  0  0  0  0  0  0  0  0  0  0
    7.5751   -3.5495   -1.2056 H   0  0  0  0  0  0  0  0  0  0  0  0
    6.4595   -5.3939   -2.3282 H   0  0  0  0  0  0  0  0  0  0  0  0
    4.0233   -4.8848   -5.1518 H   0  0  0  0  0  0  0  0  0  0  0  0
    2.0835   -6.9847   -5.0219 H   0  0  0  0  0  0  0  0  0  0  0  0
    3.4254   -9.6562   -8.9644 H   0  0  0  0  0  0  0  0  0  0  0  0
    5.7985  -10.0847   -9.4344 H   0  0  0  0  0  0  0  0  0  0  0  0
    8.1226   -9.6984   -8.9720 H   0  0  0  0  0  0  0  0  0  0  0  0
    8.3613  -10.2223   -7.2946 H   0  0  0  0  0  0  0  0  0  0  0  0
    8.6009   -8.5217   -7.7509 H   0  0  0  0  0  0  0  0  0  0  0  0
    6.9021   -8.0459   -5.7988 H   0  0  0  0  0  0  0  0  0  0  0  0
    4.4854   -2.5745   -4.9550 H   0  0  0  0  0  0  0  0  0  0  0  0
    8.7296    1.0705   -1.2785 H   0  0  0  0  0  0  0  0  0  0  0  0
    7.7913    3.3182   -0.7515 H   0  0  0  0  0  0  0  0  0  0  0  0
  1  2  1  0  0  0  0
  1 32  1  0  0  0  0
  1 33  1  0  0  0  0
  1 34  1  0  0  0  0
  2  3  1  0  0  0  0
  2 35  1  0  0  0  0
  3  4  2  0  0  0  0
  3  5  1  0  0  0  0
  5  6  2  0  0  0  0
  5 31  1  0  0  0  0
  6  7  1  0  0  0  0
  6 36  1  0  0  0  0
  7  8  1  0  0  0  0
  7 29  2  0  0  0  0
  8  9  1  0  0  0  0
  9 10  2  0  0  0  0
  9 27  1  0  0  0  0
 10 11  1  0  0  0  0
 10 37  1  0  0  0  0
 11 12  2  0  0  0  0
 11 38  1  0  0  0  0
 12 13  1  0  0  0  0
 12 26  1  0  0  0  0
 13 14  1  0  0  0  0
 13 39  1  0  0  0  0
 14 15  2  0  0  0  0
 14 16  1  0  0  0  0
 16 17  2  0  0  0  0
 16 25  1  0  0  0  0
 17 18  1  0  0  0  0
 17 40  1  0  0  0  0
 18 19  2  0  0  0  0
 19 20  1  0  0  0  0
 19 25  1  0  0  0  0
 20 21  2  0  0  0  0
 20 41  1  0  0  0  0
 21 22  1  0  0  0  0
 21 42  1  0  0  0  0
 22 23  1  0  0  0  0
 22 24  2  0  0  0  0
 23 43  1  0  0  0  0
 23 44  1  0  0  0  0
 23 45  1  0  0  0  0
 24 25  1  0  0  0  0
 24 46  1  0  0  0  0
 26 27  2  0  0  0  0
 26 47  1  0  0  0  0
 27 28  1  0  0  0  0
 29 30  1  0  0  0  0
 29 48  1  0  0  0  0
 30 31  2  0  0  0  0
 30 49  1  0  0  0  0
M  END
$$$$
