
 OpenBabel01122422503D

 57 60  0  0  1  0  0  0  0  0999 V2000
    1.7613   -0.7052   -1.0922 C   0  0  0  0  0  0  0  0  0  0  0  0
    2.3647    0.0725   -0.0597 O   0  0  0  0  0  0  0  0  0  0  0  0
    3.1075   -0.6427    0.8481 C   0  0  0  0  0  0  0  0  0  0  0  0
    2.7500   -1.9267    1.2723 C   0  0  0  0  0  0  0  0  0  0  0  0
    3.5609   -2.6216    2.1753 C   0  0  0  0  0  0  0  0  0  0  0  0
    3.2065   -4.0195    2.5188 C   0  0  0  0  0  0  0  0  0  0  0  0
    2.0367   -4.3827    2.5131 O   0  0  0  0  0  0  0  0  0  0  0  0
    4.2619   -4.8427    2.8063 N   0  0  0  0  0  0  0  0  0  0  0  0
    4.0723   -6.2196    3.1824 C   0  0  3  0  0  0  0  0  0  0  0  0
    4.1392   -7.1703    1.9974 C   0  0  0  0  0  0  0  0  0  0  0  0
    5.2466   -7.2115    1.1261 C   0  0  0  0  0  0  0  0  0  0  0  0
    5.3115   -8.1545    0.0990 C   0  0  0  0  0  0  0  0  0  0  0  0
    4.2641   -9.0492   -0.0751 C   0  0  0  0  0  0  0  0  0  0  0  0
    4.3390   -9.9729   -1.0423 F   0  0  0  0  0  0  0  0  0  0  0  0
    3.1420   -9.0044    0.7424 C   0  0  0  0  0  0  0  0  0  0  0  0
    3.0757   -8.0637    1.7716 C   0  0  0  0  0  0  0  0  0  0  0  0
    5.1887   -6.6454    4.1111 C   0  0  0  0  0  0  0  0  0  0  0  0
    6.4194   -6.0897    4.0627 N   0  0  0  0  0  0  0  0  0  0  0  0
    7.1126   -6.7598    5.0052 N   0  0  0  0  0  0  0  0  0  0  0  0
    8.5115   -6.4903    5.2148 C   0  0  0  0  0  0  0  0  0  0  0  0
    6.3581   -7.6694    5.6866 C   0  0  0  0  0  0  0  0  0  0  0  0
    5.1054   -7.6229    5.1334 C   0  0  0  0  0  0  0  0  0  0  0  0
    4.6741   -1.9988    2.7403 C   0  0  0  0  0  0  0  0  0  0  0  0
    5.0036   -0.7003    2.3631 C   0  0  0  0  0  0  0  0  0  0  0  0
    4.2555   -0.0300    1.3855 C   0  0  0  0  0  0  0  0  0  0  0  0
    4.6020    1.2119    0.9052 O   0  0  0  0  0  0  0  0  0  0  0  0
    5.9874    1.5513    1.0600 C   0  0  0  0  0  0  0  0  0  0  0  0
    6.4357    2.6045    0.1139 C   0  0  0  0  0  0  0  0  0  0  0  0
    5.6942    3.3897   -0.7426 C   0  0  0  0  0  0  0  0  0  0  0  0
    6.5881    4.1462   -1.4375 N   0  0  0  0  0  0  0  0  0  0  0  0
    6.2964    5.0589   -2.5141 C   0  0  0  0  0  0  0  0  0  0  0  0
    7.8658    3.9459   -1.0652 N   0  0  0  0  0  0  0  0  0  0  0  0
    7.7708    3.0057   -0.1237 C   0  0  0  0  0  0  0  0  0  0  0  0
    1.2791   -0.0188   -1.7946 H   0  0  0  0  0  0  0  0  0  0  0  0
    0.9788   -1.3662   -0.7067 H   0  0  0  0  0  0  0  0  0  0  0  0
    2.5181   -1.2759   -1.6417 H   0  0  0  0  0  0  0  0  0  0  0  0
    1.8481   -2.4123    0.9126 H   0  0  0  0  0  0  0  0  0  0  0  0
    5.2261   -4.5495    2.7236 H   0  0  0  0  0  0  0  0  0  0  0  0
    3.1120   -6.3148    3.7032 H   0  0  0  0  0  0  0  0  0  0  0  0
    6.0799   -6.5250    1.2653 H   0  0  0  0  0  0  0  0  0  0  0  0
    6.1764   -8.2042   -0.5542 H   0  0  0  0  0  0  0  0  0  0  0  0
    2.3300   -9.7053    0.5800 H   0  0  0  0  0  0  0  0  0  0  0  0
    2.1902   -8.0341    2.4040 H   0  0  0  0  0  0  0  0  0  0  0  0
    8.8852   -5.8367    4.4241 H   0  0  0  0  0  0  0  0  0  0  0  0
    9.0556   -7.4390    5.1995 H   0  0  0  0  0  0  0  0  0  0  0  0
    8.6204   -6.0059    6.1905 H   0  0  0  0  0  0  0  0  0  0  0  0
    6.7781   -8.2754    6.4773 H   0  0  0  0  0  0  0  0  0  0  0  0
    4.2469   -8.2145    5.4138 H   0  0  0  0  0  0  0  0  0  0  0  0
    5.2829   -2.4991    3.4881 H   0  0  0  0  0  0  0  0  0  0  0  0
    5.8589   -0.2391    2.8460 H   0  0  0  0  0  0  0  0  0  0  0  0
    6.6179    0.6722    0.8687 H   0  0  0  0  0  0  0  0  0  0  0  0
    6.1534    1.9045    2.0851 H   0  0  0  0  0  0  0  0  0  0  0  0
    4.6295    3.4397   -0.9231 H   0  0  0  0  0  0  0  0  0  0  0  0
    5.2137    5.1547   -2.6232 H   0  0  0  0  0  0  0  0  0  0  0  0
    6.7301    4.6515   -3.4309 H   0  0  0  0  0  0  0  0  0  0  0  0
    6.7369    6.0298   -2.2762 H   0  0  0  0  0  0  0  0  0  0  0  0
    8.6778    2.6403    0.3431 H   0  0  0  0  0  0  0  0  0  0  0  0
  1  2  1  0  0  0  0
  1 34  1  0  0  0  0
  1 35  1  0  0  0  0
  1 36  1  0  0  0  0
  2  3  1  0  0  0  0
  3  4  2  0  0  0  0
  3 25  1  0  0  0  0
  4  5  1  0  0  0  0
  4 37  1  0  0  0  0
  5  6  1  0  0  0  0
  5 23  2  0  0  0  0
  6  7  2  0  0  0  0
  6  8  1  0  0  0  0
  8  9  1  0  0  0  0
  8 38  1  0  0  0  0
  9 10  1  0  0  0  0
  9 17  1  0  0  0  0
  9 39  1  0  0  0  0
 10 11  2  0  0  0  0
 10 16  1  0  0  0  0
 11 12  1  0  0  0  0
 11 40  1  0  0  0  0
 12 13  2  0  0  0  0
 12 41  1  0  0  0  0
 13 14  1  0  0  0  0
 13 15  1  0  0  0  0
 15 16  2  0  0  0  0
 15 42  1  0  0  0  0
 16 43  1  0  0  0  0
 17 18  2  0  0  0  0
 17 22  1  0  0  0  0
 18 19  1  0  0  0  0
 19 20  1  0  0  0  0
 19 21  1  0  0  0  0
 20 44  1  0  0  0  0
 20 45  1  0  0  0  0
 20 46  1  0  0  0  0
 21 22  2  0  0  0  0
 21 47  1  0  0  0  0
 22 48  1  0  0  0  0
 23 24  1  0  0  0  0
 23 49  1  0  0  0  0
 24 25  2  0  0  0  0
 24 50  1  0  0  0  0
 25 26  1  0  0  0  0
 26 27  1  0  0  0  0
 27 28  1  0  0  0  0
 27 51  1  0  0  0  0
 27 52  1  0  0  0  0
 28 29  2  0  0  0  0
 28 33  1  0  0  0  0
 29 30  1  0  0  0  0
 29 53  1  0  0  0  0
 30 31  1  0  0  0  0
 30 32  1  0  0  0  0
 31 54  1  0  0  0  0
 31 55  1  0  0  0  0
 31 56  1  0  0  0  0
 32 33  2  0  0  0  0
 33 57  1  0  0  0  0
M  END
$$$$
