
 OpenBabel01122422463D

 44 47  0  0  0  0  0  0  0  0999 V2000
   14.6324   -1.1089   -1.5165 C   0  0  0  0  0  0  0  0  0  0  0  0
   13.2400   -1.0580   -1.1993 O   0  0  0  0  0  0  0  0  0  0  0  0
   12.4562   -0.6853   -2.2427 C   0  0  0  0  0  0  0  0  0  0  0  0
   12.8542   -0.4028   -3.3629 O   0  0  0  0  0  0  0  0  0  0  0  0
   11.0192   -0.6605   -1.8534 C   0  0  0  0  0  0  0  0  0  0  0  0
   10.5956   -0.9544   -0.5527 C   0  0  0  0  0  0  0  0  0  0  0  0
    9.2414   -0.9117   -0.2088 C   0  0  0  0  0  0  0  0  0  0  0  0
    8.3256   -0.5571   -1.2056 C   0  0  0  0  0  0  0  0  0  0  0  0
    6.9616   -0.4266   -1.1328 N   0  0  0  0  0  0  0  0  0  0  0  0
    6.4578   -0.0457   -2.3446 C   0  0  0  0  0  0  0  0  0  0  0  0
    7.5025    0.0638   -3.2471 C   0  0  0  0  0  0  0  0  0  0  0  0
    7.3716    0.4445   -4.6583 C   0  0  0  0  0  0  0  0  0  0  0  0
    8.3619    0.5546   -5.3859 O   0  0  0  0  0  0  0  0  0  0  0  0
    5.9952    0.7154   -5.2202 C   0  0  0  0  0  0  0  0  0  0  0  0
    5.5980    2.0916   -5.0028 N   0  0  0  0  0  0  0  0  0  0  0  0
    6.2037    3.2057   -5.5121 C   0  0  0  0  0  0  0  0  0  0  0  0
    5.4567    4.2873   -5.0936 C   0  0  0  0  0  0  0  0  0  0  0  0
    5.7501    5.6708   -5.4237 C   0  0  0  0  0  0  0  0  0  0  0  0
    7.0760    6.0999   -5.6145 C   0  0  0  0  0  0  0  0  0  0  0  0
    7.3562    7.4249   -5.9617 C   0  0  0  0  0  0  0  0  0  0  0  0
    6.3112    8.3264   -6.1160 C   0  0  0  0  0  0  0  0  0  0  0  0
    6.5802    9.5928   -6.4610 F   0  0  0  0  0  0  0  0  0  0  0  0
    4.9989    7.9174   -5.9159 C   0  0  0  0  0  0  0  0  0  0  0  0
    3.9925    8.7900   -6.0648 F   0  0  0  0  0  0  0  0  0  0  0  0
    4.7104    6.5995   -5.5671 C   0  0  0  0  0  0  0  0  0  0  0  0
    4.3954    3.7029   -4.3636 C   0  0  0  0  0  0  0  0  0  0  0  0
    4.4785    2.3695   -4.3042 N   0  0  0  0  0  0  0  0  0  0  0  0
    8.7016   -0.2561   -2.5176 C   0  0  0  0  0  0  0  0  0  0  0  0
   10.0750   -0.3182   -2.8420 C   0  0  0  0  0  0  0  0  0  0  0  0
   15.1652   -1.5235   -0.6562 H   0  0  0  0  0  0  0  0  0  0  0  0
   15.0135   -0.1008   -1.7089 H   0  0  0  0  0  0  0  0  0  0  0  0
   14.8118   -1.7610   -2.3778 H   0  0  0  0  0  0  0  0  0  0  0  0
   11.3155   -1.2186    0.2196 H   0  0  0  0  0  0  0  0  0  0  0  0
    8.9184   -1.1382    0.8025 H   0  0  0  0  0  0  0  0  0  0  0  0
    6.4144   -0.5760   -0.2955 H   0  0  0  0  0  0  0  0  0  0  0  0
    5.3936    0.1243   -2.4512 H   0  0  0  0  0  0  0  0  0  0  0  0
    5.2465    0.0471   -4.7845 H   0  0  0  0  0  0  0  0  0  0  0  0
    5.9939    0.5394   -6.3016 H   0  0  0  0  0  0  0  0  0  0  0  0
    7.0939    3.1290   -6.1226 H   0  0  0  0  0  0  0  0  0  0  0  0
    7.9070    5.4081   -5.4891 H   0  0  0  0  0  0  0  0  0  0  0  0
    8.3797    7.7533   -6.1137 H   0  0  0  0  0  0  0  0  0  0  0  0
    3.6708    6.3164   -5.4337 H   0  0  0  0  0  0  0  0  0  0  0  0
    3.5658    4.1948   -3.8712 H   0  0  0  0  0  0  0  0  0  0  0  0
   10.4048   -0.0923   -3.8547 H   0  0  0  0  0  0  0  0  0  0  0  0
  1  2  1  0  0  0  0
  1 30  1  0  0  0  0
  1 31  1  0  0  0  0
  1 32  1  0  0  0  0
  2  3  1  0  0  0  0
  3  4  2  0  0  0  0
  3  5  1  0  0  0  0
  5  6  2  0  0  0  0
  5 29  1  0  0  0  0
  6  7  1  0  0  0  0
  6 33  1  0  0  0  0
  7  8  2  0  0  0  0
  7 34  1  0  0  0  0
  8  9  1  0  0  0  0
  8 28  1  0  0  0  0
  9 10  1  0  0  0  0
  9 35  1  0  0  0  0
 10 11  2  0  0  0  0
 10 36  1  0  0  0  0
 11 12  1  0  0  0  0
 11 28  1  0  0  0  0
 12 13  2  0  0  0  0
 12 14  1  0  0  0  0
 14 15  1  0  0  0  0
 14 37  1  0  0  0  0
 14 38  1  0  0  0  0
 15 16  1  0  0  0  0
 15 27  1  0  0  0  0
 16 17  2  0  0  0  0
 16 39  1  0  0  0  0
 17 18  1  0  0  0  0
 17 26  1  0  0  0  0
 18 19  2  0  0  0  0
 18 25  1  0  0  0  0
 19 20  1  0  0  0  0
 19 40  1  0  0  0  0
 20 21  2  0  0  0  0
 20 41  1  0  0  0  0
 21 22  1  0  0  0  0
 21 23  1  0  0  0  0
 23 24  1  0  0  0  0
 23 25  2  0  0  0  0
 25 42  1  0  0  0  0
 26 27  2  0  0  0  0
 26 43  1  0  0  0  0
 28 29  2  0  0  0  0
 29 44  1  0  0  0  0
M  END
$$$$
