
 OpenBabel01122422503D

 45 48  0  0  0  0  0  0  0  0999 V2000
    0.9522   -0.0298   -0.2587 O   0  0  0  0  0  0  0  0  0  0  0  0
    2.1625    0.0736   -0.0874 C   0  0  0  0  0  0  0  0  0  0  0  0
    2.9023    1.0946   -0.6314 N   0  0  0  0  0  0  0  0  0  0  0  0
    2.2445    2.0822   -1.4801 C   0  0  0  0  0  0  0  0  0  0  0  0
    1.2173    2.9240   -0.7168 C   0  0  0  0  0  0  0  0  0  0  0  0
    0.5680    3.8911   -1.5678 N   0  0  0  0  0  0  0  0  0  0  0  0
   -0.6109    3.7157   -2.2396 C   0  0  0  0  0  0  0  0  0  0  0  0
   -0.9431    4.7878   -2.9287 N   0  0  0  0  0  0  0  0  0  0  0  0
    0.0587    5.6943   -2.6771 C   0  0  0  0  0  0  0  0  0  0  0  0
    0.2563    7.0031   -3.1267 C   0  0  0  0  0  0  0  0  0  0  0  0
    1.4021    7.6646   -2.6765 C   0  0  0  0  0  0  0  0  0  0  0  0
    2.2775    7.0055   -1.8175 C   0  0  0  0  0  0  0  0  0  0  0  0
    2.1363    5.7369   -1.3577 N   0  0  0  0  0  0  0  0  0  0  0  0
    1.0145    5.1543   -1.8241 C   0  0  0  0  0  0  0  0  0  0  0  0
    2.8666   -0.9440    0.7236 C   0  0  0  0  0  0  0  0  0  0  0  0
    2.2706   -2.2033    0.7977 C   0  0  0  0  0  0  0  0  0  0  0  0
    2.8265   -3.1902    1.6020 C   0  0  0  0  0  0  0  0  0  0  0  0
    2.1714   -4.3563    1.6756 F   0  0  0  0  0  0  0  0  0  0  0  0
    4.0202   -2.9718    2.2911 C   0  0  0  0  0  0  0  0  0  0  0  0
    4.6747   -3.9067    3.0647 O   0  0  0  0  0  0  0  0  0  0  0  0
    4.6120   -5.2374    2.7102 C   0  0  0  0  0  0  0  0  0  0  0  0
    4.5481   -5.6874    1.3881 C   0  0  0  0  0  0  0  0  0  0  0  0
    4.3438   -7.0386    1.1172 C   0  0  0  0  0  0  0  0  0  0  0  0
    4.2965   -7.9569    2.1625 C   0  0  0  0  0  0  0  0  0  0  0  0
    4.4747   -7.5267    3.4766 C   0  0  0  0  0  0  0  0  0  0  0  0
    4.6331   -6.1659    3.7530 C   0  0  0  0  0  0  0  0  0  0  0  0
    4.5838   -1.6932    2.2370 C   0  0  0  0  0  0  0  0  0  0  0  0
    5.6873   -1.4166    2.9479 F   0  0  0  0  0  0  0  0  0  0  0  0
    4.0199   -0.6779    1.4586 C   0  0  0  0  0  0  0  0  0  0  0  0
    3.9104    1.0177   -0.6815 H   0  0  0  0  0  0  0  0  0  0  0  0
    1.7635    1.5501   -2.3091 H   0  0  0  0  0  0  0  0  0  0  0  0
    3.0277    2.7174   -1.9066 H   0  0  0  0  0  0  0  0  0  0  0  0
    1.6986    3.4585    0.1110 H   0  0  0  0  0  0  0  0  0  0  0  0
    0.4265    2.3115   -0.2723 H   0  0  0  0  0  0  0  0  0  0  0  0
   -1.1772    2.7999   -2.1925 H   0  0  0  0  0  0  0  0  0  0  0  0
   -0.4543    7.4740   -3.7947 H   0  0  0  0  0  0  0  0  0  0  0  0
    1.6083    8.6816   -2.9921 H   0  0  0  0  0  0  0  0  0  0  0  0
    3.1694    7.5140   -1.4564 H   0  0  0  0  0  0  0  0  0  0  0  0
    1.3638   -2.4274    0.2424 H   0  0  0  0  0  0  0  0  0  0  0  0
    4.5889   -4.9919    0.5567 H   0  0  0  0  0  0  0  0  0  0  0  0
    4.1982   -7.3657    0.0904 H   0  0  0  0  0  0  0  0  0  0  0  0
    4.1208   -9.0081    1.9500 H   0  0  0  0  0  0  0  0  0  0  0  0
    4.4659   -8.2490    4.2885 H   0  0  0  0  0  0  0  0  0  0  0  0
    4.7469   -5.8336    4.7820 H   0  0  0  0  0  0  0  0  0  0  0  0
    4.4739    0.3108    1.4847 H   0  0  0  0  0  0  0  0  0  0  0  0
  1  2  2  0  0  0  0
  2  3  1  0  0  0  0
  2 15  1  0  0  0  0
  3  4  1  0  0  0  0
  3 30  1  0  0  0  0
  4  5  1  0  0  0  0
  4 31  1  0  0  0  0
  4 32  1  0  0  0  0
  5  6  1  0  0  0  0
  5 33  1  0  0  0  0
  5 34  1  0  0  0  0
  6  7  1  0  0  0  0
  6 14  1  0  0  0  0
  7  8  2  0  0  0  0
  7 35  1  0  0  0  0
  8  9  1  0  0  0  0
  9 10  2  0  0  0  0
  9 14  1  0  0  0  0
 10 11  1  0  0  0  0
 10 36  1  0  0  0  0
 11 12  2  0  0  0  0
 11 37  1  0  0  0  0
 12 13  1  0  0  0  0
 12 38  1  0  0  0  0
 13 14  2  0  0  0  0
 15 16  2  0  0  0  0
 15 29  1  0  0  0  0
 16 17  1  0  0  0  0
 16 39  1  0  0  0  0
 17 18  1  0  0  0  0
 17 19  2  0  0  0  0
 19 20  1  0  0  0  0
 19 27  1  0  0  0  0
 20 21  1  0  0  0  0
 21 22  2  0  0  0  0
 21 26  1  0  0  0  0
 22 23  1  0  0  0  0
 22 40  1  0  0  0  0
 23 24  2  0  0  0  0
 23 41  1  0  0  0  0
 24 25  1  0  0  0  0
 24 42  1  0  0  0  0
 25 26  2  0  0  0  0
 25 43  1  0  0  0  0
 26 44  1  0  0  0  0
 27 28  1  0  0  0  0
 27 29  2  0  0  0  0
 29 45  1  0  0  0  0
M  END
$$$$
