
 OpenBabel01122422503D

 48 51  0  0  0  0  0  0  0  0999 V2000
    1.1085    0.7562    0.0976 O   0  0  0  0  0  0  0  0  0  0  0  0
    2.3286    0.8626    0.2579 C   0  0  0  0  0  0  0  0  0  0  0  0
    2.9272    1.1665    1.6203 C   0  0  0  0  0  0  0  0  0  0  0  0
    3.2926   -0.0753    2.3690 C   0  0  0  0  0  0  0  0  0  0  0  0
    2.4172   -1.0531    2.8039 C   0  0  0  0  0  0  0  0  0  0  0  0
    3.1269   -1.9983    3.4915 N   0  0  0  0  0  0  0  0  0  0  0  0
    4.4595   -1.6600    3.5236 C   0  0  0  0  0  0  0  0  0  0  0  0
    5.5415   -2.3112    4.1312 C   0  0  0  0  0  0  0  0  0  0  0  0
    6.8083   -1.7324    4.0010 C   0  0  0  0  0  0  0  0  0  0  0  0
    6.9693   -0.5520    3.2869 C   0  0  0  0  0  0  0  0  0  0  0  0
    8.1959    0.0308    3.1444 O   0  0  0  0  0  0  0  0  0  0  0  0
    5.8864    0.0937    2.6927 C   0  0  0  0  0  0  0  0  0  0  0  0
    4.5980   -0.4663    2.8125 C   0  0  0  0  0  0  0  0  0  0  0  0
    3.1465    0.7159   -0.8243 N   0  0  0  0  0  0  0  0  0  0  0  0
    4.5883    0.8020   -0.8850 C   0  0  0  0  0  0  0  0  0  0  0  0
    5.0268    1.9179   -1.7948 C   0  0  0  0  0  0  0  0  0  0  0  0
    4.6479    3.2453   -1.5246 C   0  0  0  0  0  0  0  0  0  0  0  0
    5.0367    4.3222   -2.3448 C   0  0  0  0  0  0  0  0  0  0  0  0
    4.6288    5.7139   -2.0298 C   0  0  0  0  0  0  0  0  0  0  0  0
    3.4123    5.9909   -1.3738 C   0  0  0  0  0  0  0  0  0  0  0  0
    3.0611    7.2967   -1.0329 C   0  0  0  0  0  0  0  0  0  0  0  0
    1.9003    7.5679   -0.3685 O   0  0  0  0  0  0  0  0  0  0  0  0
    3.8878    8.3630   -1.3532 C   0  0  0  0  0  0  0  0  0  0  0  0
    5.0817    8.1235   -2.0248 C   0  0  0  0  0  0  0  0  0  0  0  0
    5.4480    6.8137   -2.3538 C   0  0  0  0  0  0  0  0  0  0  0  0
    5.8404    4.0158   -3.4555 C   0  0  0  0  0  0  0  0  0  0  0  0
    6.2498    2.7057   -3.7222 C   0  0  0  0  0  0  0  0  0  0  0  0
    5.8446    1.6616   -2.8960 C   0  0  0  0  0  0  0  0  0  0  0  0
    2.1828    1.7319    2.1941 H   0  0  0  0  0  0  0  0  0  0  0  0
    3.7778    1.8456    1.5168 H   0  0  0  0  0  0  0  0  0  0  0  0
    1.3450   -1.1475    2.6823 H   0  0  0  0  0  0  0  0  0  0  0  0
    2.7315   -2.8215    3.9249 H   0  0  0  0  0  0  0  0  0  0  0  0
    5.4059   -3.2299    4.6928 H   0  0  0  0  0  0  0  0  0  0  0  0
    7.6573   -2.2205    4.4700 H   0  0  0  0  0  0  0  0  0  0  0  0
    8.8400   -0.4726    3.6683 H   0  0  0  0  0  0  0  0  0  0  0  0
    6.0488    1.0224    2.1562 H   0  0  0  0  0  0  0  0  0  0  0  0
    2.6526    0.5135   -1.6847 H   0  0  0  0  0  0  0  0  0  0  0  0
    4.9463   -0.1665   -1.2487 H   0  0  0  0  0  0  0  0  0  0  0  0
    5.0302    0.9628    0.0962 H   0  0  0  0  0  0  0  0  0  0  0  0
    4.0452    3.4340   -0.6384 H   0  0  0  0  0  0  0  0  0  0  0  0
    2.7317    5.1818   -1.1270 H   0  0  0  0  0  0  0  0  0  0  0  0
    1.4287    6.7333   -0.2100 H   0  0  0  0  0  0  0  0  0  0  0  0
    3.6038    9.3747   -1.0806 H   0  0  0  0  0  0  0  0  0  0  0  0
    5.7358    8.9523   -2.2837 H   0  0  0  0  0  0  0  0  0  0  0  0
    6.4020    6.6665   -2.8557 H   0  0  0  0  0  0  0  0  0  0  0  0
    6.1644    4.7975   -4.1390 H   0  0  0  0  0  0  0  0  0  0  0  0
    6.8908    2.5040   -4.5764 H   0  0  0  0  0  0  0  0  0  0  0  0
    6.1766    0.6498   -3.1157 H   0  0  0  0  0  0  0  0  0  0  0  0
  1  2  2  0  0  0  0
  2  3  1  0  0  0  0
  2 14  1  0  0  0  0
  3  4  1  0  0  0  0
  3 29  1  0  0  0  0
  3 30  1  0  0  0  0
  4  5  2  0  0  0  0
  4 13  1  0  0  0  0
  5  6  1  0  0  0  0
  5 31  1  0  0  0  0
  6  7  1  0  0  0  0
  6 32  1  0  0  0  0
  7  8  2  0  0  0  0
  7 13  1  0  0  0  0
  8  9  1  0  0  0  0
  8 33  1  0  0  0  0
  9 10  2  0  0  0  0
  9 34  1  0  0  0  0
 10 11  1  0  0  0  0
 10 12  1  0  0  0  0
 11 35  1  0  0  0  0
 12 13  2  0  0  0  0
 12 36  1  0  0  0  0
 14 15  1  0  0  0  0
 14 37  1  0  0  0  0
 15 16  1  0  0  0  0
 15 38  1  0  0  0  0
 15 39  1  0  0  0  0
 16 17  2  0  0  0  0
 16 28  1  0  0  0  0
 17 18  1  0  0  0  0
 17 40  1  0  0  0  0
 18 19  1  0  0  0  0
 18 26  2  0  0  0  0
 19 20  2  0  0  0  0
 19 25  1  0  0  0  0
 20 21  1  0  0  0  0
 20 41  1  0  0  0  0
 21 22  1  0  0  0  0
 21 23  2  0  0  0  0
 22 42  1  0  0  0  0
 23 24  1  0  0  0  0
 23 43  1  0  0  0  0
 24 25  2  0  0  0  0
 24 44  1  0  0  0  0
 25 45  1  0  0  0  0
 26 27  1  0  0  0  0
 26 46  1  0  0  0  0
 27 28  2  0  0  0  0
 27 47  1  0  0  0  0
 28 48  1  0  0  0  0
M  END
$$$$
