
 OpenBabel01122422503D

 44 47  0  0  0  0  0  0  0  0999 V2000
    3.1456    6.5239    5.2041 C   0  0  0  0  0  0  0  0  0  0  0  0
    4.0772    6.5955    4.0975 N   0  0  0  0  0  0  0  0  0  0  0  0
    4.4743    7.8165    3.6104 C   0  0  0  0  0  0  0  0  0  0  0  0
    5.1989    7.9913    2.5581 N   0  0  0  0  0  0  0  0  0  0  0  0
    5.6369    6.8481    1.8761 C   0  0  0  0  0  0  0  0  0  0  0  0
    6.3813    7.0088    0.7095 C   0  0  0  0  0  0  0  0  0  0  0  0
    6.9144    5.8983    0.0444 C   0  0  0  0  0  0  0  0  0  0  0  0
    6.7900    4.6147    0.5893 C   0  0  0  0  0  0  0  0  0  0  0  0
    7.5258    3.4147    0.0654 C   0  0  0  0  0  0  0  0  0  0  0  0
    6.9516    2.3291    0.1670 O   0  0  0  0  0  0  0  0  0  0  0  0
    8.8032    3.5242   -0.5187 N   0  0  0  0  0  0  0  0  0  0  0  0
    9.5100    2.2793   -0.8623 C   0  0  0  0  0  0  0  0  0  0  0  0
    9.3565    1.9462   -2.3018 C   0  0  0  0  0  0  0  0  0  0  0  0
    8.3051    1.4836   -3.0648 C   0  0  0  0  0  0  0  0  0  0  0  0
    8.8013    1.3331   -4.3820 C   0  0  0  0  0  0  0  0  0  0  0  0
   10.1274    1.6956   -4.3373 C   0  0  0  0  0  0  0  0  0  0  0  0
   10.4736    2.0713   -3.0795 O   0  0  0  0  0  0  0  0  0  0  0  0
    9.6201    4.6860   -0.4798 C   0  0  0  0  0  0  0  0  0  0  0  0
   10.1121    5.2041   -1.6861 C   0  0  0  0  0  0  0  0  0  0  0  0
   10.8388    6.3968   -1.6930 C   0  0  0  0  0  0  0  0  0  0  0  0
   11.0980    7.0490   -0.4920 C   0  0  0  0  0  0  0  0  0  0  0  0
   11.7812    8.2011   -0.5074 F   0  0  0  0  0  0  0  0  0  0  0  0
   10.6551    6.5331    0.7187 C   0  0  0  0  0  0  0  0  0  0  0  0
    9.9223    5.3498    0.7180 C   0  0  0  0  0  0  0  0  0  0  0  0
    9.5065    4.8532    1.8913 F   0  0  0  0  0  0  0  0  0  0  0  0
    5.9489    4.4393    1.6998 C   0  0  0  0  0  0  0  0  0  0  0  0
    5.3723    5.5545    2.3263 C   0  0  0  0  0  0  0  0  0  0  0  0
    4.4697    5.4110    3.4868 C   0  0  0  0  0  0  0  0  0  0  0  0
    4.0895    4.2980    3.8422 O   0  0  0  0  0  0  0  0  0  0  0  0
    3.0068    7.5022    5.6735 H   0  0  0  0  0  0  0  0  0  0  0  0
    3.5096    5.8085    5.9471 H   0  0  0  0  0  0  0  0  0  0  0  0
    2.1813    6.1716    4.8231 H   0  0  0  0  0  0  0  0  0  0  0  0
    4.1289    8.6855    4.1933 H   0  0  0  0  0  0  0  0  0  0  0  0
    6.5639    8.0103    0.3258 H   0  0  0  0  0  0  0  0  0  0  0  0
    7.4574    6.0678   -0.8795 H   0  0  0  0  0  0  0  0  0  0  0  0
    9.1333    1.4514   -0.2514 H   0  0  0  0  0  0  0  0  0  0  0  0
   10.5720    2.3855   -0.6050 H   0  0  0  0  0  0  0  0  0  0  0  0
    7.3064    1.2776   -2.7024 H   0  0  0  0  0  0  0  0  0  0  0  0
    8.2640    0.9904   -5.2548 H   0  0  0  0  0  0  0  0  0  0  0  0
   10.9191    1.7347   -5.0723 H   0  0  0  0  0  0  0  0  0  0  0  0
    9.8831    4.7206   -2.6339 H   0  0  0  0  0  0  0  0  0  0  0  0
   11.1879    6.8253   -2.6282 H   0  0  0  0  0  0  0  0  0  0  0  0
   10.8696    7.0480    1.6480 H   0  0  0  0  0  0  0  0  0  0  0  0
    5.7612    3.4420    2.0955 H   0  0  0  0  0  0  0  0  0  0  0  0
  1  2  1  0  0  0  0
  1 30  1  0  0  0  0
  1 31  1  0  0  0  0
  1 32  1  0  0  0  0
  2  3  1  0  0  0  0
  2 28  1  0  0  0  0
  3  4  2  0  0  0  0
  3 33  1  0  0  0  0
  4  5  1  0  0  0  0
  5  6  2  0  0  0  0
  5 27  1  0  0  0  0
  6  7  1  0  0  0  0
  6 34  1  0  0  0  0
  7  8  2  0  0  0  0
  7 35  1  0  0  0  0
  8  9  1  0  0  0  0
  8 26  1  0  0  0  0
  9 10  2  0  0  0  0
  9 11  1  0  0  0  0
 11 12  1  0  0  0  0
 11 18  1  0  0  0  0
 12 13  1  0  0  0  0
 12 36  1  0  0  0  0
 12 37  1  0  0  0  0
 13 14  2  0  0  0  0
 13 17  1  0  0  0  0
 14 15  1  0  0  0  0
 14 38  1  0  0  0  0
 15 16  2  0  0  0  0
 15 39  1  0  0  0  0
 16 17  1  0  0  0  0
 16 40  1  0  0  0  0
 18 19  2  0  0  0  0
 18 24  1  0  0  0  0
 19 20  1  0  0  0  0
 19 41  1  0  0  0  0
 20 21  2  0  0  0  0
 20 42  1  0  0  0  0
 21 22  1  0  0  0  0
 21 23  1  0  0  0  0
 23 24  2  0  0  0  0
 23 43  1  0  0  0  0
 24 25  1  0  0  0  0
 26 27  2  0  0  0  0
 26 44  1  0  0  0  0
 27 28  1  0  0  0  0
 28 29  2  0  0  0  0
M  END
$$$$
