
 OpenBabel01122422503D

 42 45  0  0  0  0  0  0  0  0999 V2000
    1.0918   -0.3696   -0.0993 O   0  0  0  0  0  0  0  0  0  0  0  0
    2.2698   -0.0213   -0.0458 C   0  0  0  0  0  0  0  0  0  0  0  0
    2.8148    0.8234    0.8830 N   0  0  0  0  0  0  0  0  0  0  0  0
    2.1950    1.4205    1.9904 C   0  0  0  0  0  0  0  0  0  0  0  0
    0.9371    1.0542    2.4611 C   0  0  0  0  0  0  0  0  0  0  0  0
    0.3721    1.7202    3.5533 C   0  0  0  0  0  0  0  0  0  0  0  0
    1.0520    2.7666    4.1924 C   0  0  0  0  0  0  0  0  0  0  0  0
    0.4222    3.5122    5.2865 C   0  0  0  0  0  0  0  0  0  0  0  0
   -0.4474    3.0169    6.1798 C   0  0  0  0  0  0  0  0  0  0  0  0
   -0.8938    4.1907    6.9591 C   0  0  0  0  0  0  0  0  0  0  0  0
   -1.6254    4.1480    7.9283 O   0  0  0  0  0  0  0  0  0  0  0  0
   -0.3229    5.3039    6.3699 N   0  0  0  0  0  0  0  0  0  0  0  0
    0.6259    4.8815    5.4353 N   0  0  0  0  0  0  0  0  0  0  0  0
    2.3273    3.1124    3.7294 C   0  0  0  0  0  0  0  0  0  0  0  0
    2.8985    2.4359    2.6469 C   0  0  0  0  0  0  0  0  0  0  0  0
    3.1266   -0.5218   -0.9889 N   0  0  0  0  0  0  0  0  0  0  0  0
    4.4911   -0.3385   -1.0985 C   0  0  0  0  0  0  0  0  0  0  0  0
    5.1770    0.5543   -0.3693 N   0  0  0  0  0  0  0  0  0  0  0  0
    6.4988    0.4098   -0.7155 O   0  0  0  0  0  0  0  0  0  0  0  0
    6.6105   -0.5520   -1.6560 C   0  0  0  0  0  0  0  0  0  0  0  0
    5.3663   -1.0505   -1.9752 C   0  0  0  0  0  0  0  0  0  0  0  0
    5.1756   -2.1409   -2.9212 C   0  0  0  0  0  0  0  0  0  0  0  0
    6.0068   -2.2539   -4.0500 C   0  0  0  0  0  0  0  0  0  0  0  0
    5.9012   -3.3565   -4.9027 C   0  0  0  0  0  0  0  0  0  0  0  0
    4.9576   -4.3421   -4.6407 C   0  0  0  0  0  0  0  0  0  0  0  0
    4.8812   -5.4109   -5.4424 F   0  0  0  0  0  0  0  0  0  0  0  0
    4.0999   -4.2371   -3.5575 C   0  0  0  0  0  0  0  0  0  0  0  0
    4.2130   -3.1394   -2.7098 C   0  0  0  0  0  0  0  0  0  0  0  0
    3.3796   -3.0753   -1.6619 F   0  0  0  0  0  0  0  0  0  0  0  0
    3.7726    1.1017    0.6934 H   0  0  0  0  0  0  0  0  0  0  0  0
    0.3704    0.2495    2.0029 H   0  0  0  0  0  0  0  0  0  0  0  0
   -0.6212    1.4185    3.8772 H   0  0  0  0  0  0  0  0  0  0  0  0
   -0.8139    2.0191    6.3233 H   0  0  0  0  0  0  0  0  0  0  0  0
   -0.2174    6.1739    6.8769 H   0  0  0  0  0  0  0  0  0  0  0  0
    0.5830    5.3655    4.5344 H   0  0  0  0  0  0  0  0  0  0  0  0
    2.8909    3.9115    4.2061 H   0  0  0  0  0  0  0  0  0  0  0  0
    3.8893    2.7304    2.3084 H   0  0  0  0  0  0  0  0  0  0  0  0
    2.6939   -1.2038   -1.5967 H   0  0  0  0  0  0  0  0  0  0  0  0
    7.6205   -0.7714   -1.9701 H   0  0  0  0  0  0  0  0  0  0  0  0
    6.7518   -1.4936   -4.2780 H   0  0  0  0  0  0  0  0  0  0  0  0
    6.5578   -3.4575   -5.7622 H   0  0  0  0  0  0  0  0  0  0  0  0
    3.3621   -5.0073   -3.3627 H   0  0  0  0  0  0  0  0  0  0  0  0
  1  2  2  0  0  0  0
  2  3  1  0  0  0  0
  2 16  1  0  0  0  0
  3  4  1  0  0  0  0
  3 30  1  0  0  0  0
  4  5  2  0  0  0  0
  4 15  1  0  0  0  0
  5  6  1  0  0  0  0
  5 31  1  0  0  0  0
  6  7  2  0  0  0  0
  6 32  1  0  0  0  0
  7  8  1  0  0  0  0
  7 14  1  0  0  0  0
  8  9  2  0  0  0  0
  8 13  1  0  0  0  0
  9 10  1  0  0  0  0
  9 33  1  0  0  0  0
 10 11  2  0  0  0  0
 10 12  1  0  0  0  0
 12 13  1  0  0  0  0
 12 34  1  0  0  0  0
 13 35  1  0  0  0  0
 14 15  2  0  0  0  0
 14 36  1  0  0  0  0
 15 37  1  0  0  0  0
 16 17  1  0  0  0  0
 16 38  1  0  0  0  0
 17 18  2  0  0  0  0
 17 21  1  0  0  0  0
 18 19  1  0  0  0  0
 19 20  1  0  0  0  0
 20 21  2  0  0  0  0
 20 39  1  0  0  0  0
 21 22  1  0  0  0  0
 22 23  2  0  0  0  0
 22 28  1  0  0  0  0
 23 24  1  0  0  0  0
 23 40  1  0  0  0  0
 24 25  2  0  0  0  0
 24 41  1  0  0  0  0
 25 26  1  0  0  0  0
 25 27  1  0  0  0  0
 27 28  2  0  0  0  0
 27 42  1  0  0  0  0
 28 29  1  0  0  0  0
M  END
$$$$
