
 OpenBabel01122422503D

 49 52  0  0  0  0  0  0  0  0999 V2000
    1.7126    1.2932    0.5068 O   0  0  0  0  0  0  0  0  0  0  0  0
    1.9505    0.1391    0.1566 C   0  0  0  0  0  0  0  0  0  0  0  0
    1.4529   -0.4255   -0.9945 N   0  0  0  0  0  0  0  0  0  0  0  0
    0.5387    0.2143   -1.8182 C   0  0  0  0  0  0  0  0  0  0  0  0
   -0.5105    1.0196   -1.4445 C   0  0  0  0  0  0  0  0  0  0  0  0
   -1.1331    1.3958   -2.5997 N   0  0  0  0  0  0  0  0  0  0  0  0
   -0.5265    0.9391   -3.7117 N   0  0  0  0  0  0  0  0  0  0  0  0
    0.4763    0.2064   -3.2248 C   0  0  0  0  0  0  0  0  0  0  0  0
    1.3651   -0.3610   -4.0662 O   0  0  0  0  0  0  0  0  0  0  0  0
    1.5492    0.4014   -5.2721 C   0  0  0  0  0  0  0  0  0  0  0  0
    0.5428    0.0954   -6.3709 C   0  0  0  0  0  0  0  0  0  0  0  0
   -0.3311   -0.8806   -6.0535 F   0  0  0  0  0  0  0  0  0  0  0  0
   -0.1601    1.1946   -6.7344 F   0  0  0  0  0  0  0  0  0  0  0  0
    1.1988   -0.3246   -7.4876 F   0  0  0  0  0  0  0  0  0  0  0  0
    2.8422   -0.7502    0.9809 C   0  0  0  0  0  0  0  0  0  0  0  0
    3.8808   -0.2754    1.7070 C   0  0  0  0  0  0  0  0  0  0  0  0
    4.3421    1.1264    1.5794 C   0  0  0  0  0  0  0  0  0  0  0  0
    3.8809    2.1202    2.4512 C   0  0  0  0  0  0  0  0  0  0  0  0
    4.4237    3.4071    2.3994 C   0  0  0  0  0  0  0  0  0  0  0  0
    5.4436    3.7029    1.4956 C   0  0  0  0  0  0  0  0  0  0  0  0
    5.8893    2.7278    0.6043 C   0  0  0  0  0  0  0  0  0  0  0  0
    5.3200    1.4530    0.6222 C   0  0  0  0  0  0  0  0  0  0  0  0
    4.5467   -1.2471    2.6605 C   0  0  0  0  0  0  0  0  0  0  0  0
    5.5858   -0.7928    3.6641 C   0  0  0  0  0  0  0  0  0  0  0  0
    5.5899   -1.3870    4.9368 C   0  0  0  0  0  0  0  0  0  0  0  0
    6.5038   -1.0022    5.9276 C   0  0  0  0  0  0  0  0  0  0  0  0
    7.4254    0.0109    5.6591 C   0  0  0  0  0  0  0  0  0  0  0  0
    7.4620    0.5857    4.3963 C   0  0  0  0  0  0  0  0  0  0  0  0
    6.5865    0.1434    3.3967 C   0  0  0  0  0  0  0  0  0  0  0  0
    4.2241   -2.5071    2.7344 N   0  0  0  0  0  0  0  0  0  0  0  0
    3.2537   -2.9613    1.9147 N   0  0  0  0  0  0  0  0  0  0  0  0
    2.5432   -2.2146    1.0194 C   0  0  0  0  0  0  0  0  0  0  0  0
    1.7162   -2.7319    0.2718 O   0  0  0  0  0  0  0  0  0  0  0  0
    1.7822   -1.3340   -1.3083 H   0  0  0  0  0  0  0  0  0  0  0  0
   -0.8878    1.3193   -0.4772 H   0  0  0  0  0  0  0  0  0  0  0  0
   -1.9658    1.9679   -2.7047 H   0  0  0  0  0  0  0  0  0  0  0  0
    2.5521    0.1382   -5.6346 H   0  0  0  0  0  0  0  0  0  0  0  0
    1.6030    1.4791   -5.0614 H   0  0  0  0  0  0  0  0  0  0  0  0
    3.0985    1.9010    3.1760 H   0  0  0  0  0  0  0  0  0  0  0  0
    4.0573    4.1733    3.0752 H   0  0  0  0  0  0  0  0  0  0  0  0
    5.8862    4.6942    1.4842 H   0  0  0  0  0  0  0  0  0  0  0  0
    6.6941    2.9565   -0.0901 H   0  0  0  0  0  0  0  0  0  0  0  0
    5.7003    0.6956   -0.0606 H   0  0  0  0  0  0  0  0  0  0  0  0
    4.8712   -2.1732    5.1679 H   0  0  0  0  0  0  0  0  0  0  0  0
    6.4922   -1.4820    6.8884 H   0  0  0  0  0  0  0  0  0  0  0  0
    8.1241    0.3268    6.4317 H   0  0  0  0  0  0  0  0  0  0  0  0
    8.1902    1.3594    4.1699 H   0  0  0  0  0  0  0  0  0  0  0  0
    6.7242    0.5705    2.4157 H   0  0  0  0  0  0  0  0  0  0  0  0
    3.0382   -3.9525    1.9629 H   0  0  0  0  0  0  0  0  0  0  0  0
  1  2  2  0  0  0  0
  2  3  1  0  0  0  0
  2 15  1  0  0  0  0
  3  4  1  0  0  0  0
  3 34  1  0  0  0  0
  4  5  2  0  0  0  0
  4  8  1  0  0  0  0
  5  6  1  0  0  0  0
  5 35  1  0  0  0  0
  6  7  1  0  0  0  0
  6 36  1  0  0  0  0
  7  8  2  0  0  0  0
  8  9  1  0  0  0  0
  9 10  1  0  0  0  0
 10 11  1  0  0  0  0
 10 37  1  0  0  0  0
 10 38  1  0  0  0  0
 11 12  1  0  0  0  0
 11 13  1  0  0  0  0
 11 14  1  0  0  0  0
 15 16  2  0  0  0  0
 15 32  1  0  0  0  0
 16 17  1  0  0  0  0
 16 23  1  0  0  0  0
 17 18  2  0  0  0  0
 17 22  1  0  0  0  0
 18 19  1  0  0  0  0
 18 39  1  0  0  0  0
 19 20  2  0  0  0  0
 19 40  1  0  0  0  0
 20 21  1  0  0  0  0
 20 41  1  0  0  0  0
 21 22  2  0  0  0  0
 21 42  1  0  0  0  0
 22 43  1  0  0  0  0
 23 24  1  0  0  0  0
 23 30  2  0  0  0  0
 24 25  2  0  0  0  0
 24 29  1  0  0  0  0
 25 26  1  0  0  0  0
 25 44  1  0  0  0  0
 26 27  2  0  0  0  0
 26 45  1  0  0  0  0
 27 28  1  0  0  0  0
 27 46  1  0  0  0  0
 28 29  2  0  0  0  0
 28 47  1  0  0  0  0
 29 48  1  0  0  0  0
 30 31  1  0  0  0  0
 31 32  1  0  0  0  0
 31 49  1  0  0  0  0
 32 33  2  0  0  0  0
M  END
$$$$
