
 OpenBabel01122422463D

 44 47  0  0  0  0  0  0  0  0999 V2000
    4.5030   -2.2919   -0.5319 O   0  0  0  0  0  0  0  0  0  0  0  0
    3.9541   -1.1960   -0.4583 C   0  0  0  0  0  0  0  0  0  0  0  0
    2.8408   -0.8194   -1.1819 N   0  0  0  0  0  0  0  0  0  0  0  0
    2.0909   -1.6240   -2.0260 C   0  0  0  0  0  0  0  0  0  0  0  0
    0.9947   -1.1234   -2.6194 C   0  0  0  0  0  0  0  0  0  0  0  0
    0.1314   -1.9161   -3.3637 N   0  0  0  0  0  0  0  0  0  0  0  0
   -1.1593   -1.3757   -3.7723 C   0  0  0  0  0  0  0  0  0  0  0  0
   -1.1883   -0.7096   -5.1275 C   0  0  0  0  0  0  0  0  0  0  0  0
   -1.5484    0.6415   -5.2355 C   0  0  0  0  0  0  0  0  0  0  0  0
   -1.7752    1.2053   -6.4874 C   0  0  0  0  0  0  0  0  0  0  0  0
   -2.1737    2.4817   -6.5683 F   0  0  0  0  0  0  0  0  0  0  0  0
   -1.6338    0.4567   -7.6484 C   0  0  0  0  0  0  0  0  0  0  0  0
   -1.2305   -0.8736   -7.5582 C   0  0  0  0  0  0  0  0  0  0  0  0
   -1.0055   -1.4529   -6.3052 C   0  0  0  0  0  0  0  0  0  0  0  0
    0.3610   -3.2796   -3.5609 C   0  0  0  0  0  0  0  0  0  0  0  0
   -0.3946   -4.0412   -4.1581 O   0  0  0  0  0  0  0  0  0  0  0  0
    1.6106   -3.8179   -2.9764 C   0  0  0  0  0  0  0  0  0  0  0  0
    2.4097   -3.0192   -2.2504 C   0  0  0  0  0  0  0  0  0  0  0  0
    4.5744   -0.2024    0.4595 C   0  0  0  0  0  0  0  0  0  0  0  0
    4.5636    1.1754    0.1871 C   0  0  0  0  0  0  0  0  0  0  0  0
    5.3905    2.0407    0.9175 C   0  0  0  0  0  0  0  0  0  0  0  0
    6.3073    1.5242    1.8340 C   0  0  0  0  0  0  0  0  0  0  0  0
    6.3404    0.1497    2.0734 C   0  0  0  0  0  0  0  0  0  0  0  0
    5.4031   -0.6845    1.4807 C   0  0  0  0  0  0  0  0  0  0  0  0
    5.3669   -2.0673    1.9706 C   0  0  0  0  0  0  0  0  0  0  0  0
    6.3547   -2.6377    2.5859 N   0  0  0  0  0  0  0  0  0  0  0  0
    7.4497   -1.8632    2.8241 N   0  0  0  0  0  0  0  0  0  0  0  0
    7.4685   -0.4867    2.7792 C   0  0  0  0  0  0  0  0  0  0  0  0
    8.3978    0.1832    3.2157 O   0  0  0  0  0  0  0  0  0  0  0  0
    2.4913    0.1198   -1.0470 H   0  0  0  0  0  0  0  0  0  0  0  0
    0.6989   -0.0852   -2.4968 H   0  0  0  0  0  0  0  0  0  0  0  0
   -1.4899   -0.6708   -2.9986 H   0  0  0  0  0  0  0  0  0  0  0  0
   -1.9104   -2.1751   -3.7727 H   0  0  0  0  0  0  0  0  0  0  0  0
   -1.7032    1.2561   -4.3541 H   0  0  0  0  0  0  0  0  0  0  0  0
   -1.8512    0.9083   -8.6108 H   0  0  0  0  0  0  0  0  0  0  0  0
   -1.1211   -1.4719   -8.4597 H   0  0  0  0  0  0  0  0  0  0  0  0
   -0.7318   -2.5063   -6.2542 H   0  0  0  0  0  0  0  0  0  0  0  0
    1.8235   -4.8657   -3.1424 H   0  0  0  0  0  0  0  0  0  0  0  0
    3.3102   -3.4686   -1.8594 H   0  0  0  0  0  0  0  0  0  0  0  0
    3.9838    1.5951   -0.6298 H   0  0  0  0  0  0  0  0  0  0  0  0
    5.3864    3.1091    0.7068 H   0  0  0  0  0  0  0  0  0  0  0  0
    7.0268    2.1809    2.3215 H   0  0  0  0  0  0  0  0  0  0  0  0
    4.4374   -2.6484    1.8335 H   0  0  0  0  0  0  0  0  0  0  0  0
    8.2565   -2.3408    3.2162 H   0  0  0  0  0  0  0  0  0  0  0  0
  1  2  2  0  0  0  0
  2  3  1  0  0  0  0
  2 19  1  0  0  0  0
  3  4  1  0  0  0  0
  3 30  1  0  0  0  0
  4  5  2  0  0  0  0
  4 18  1  0  0  0  0
  5  6  1  0  0  0  0
  5 31  1  0  0  0  0
  6  7  1  0  0  0  0
  6 15  1  0  0  0  0
  7  8  1  0  0  0  0
  7 32  1  0  0  0  0
  7 33  1  0  0  0  0
  8  9  2  0  0  0  0
  8 14  1  0  0  0  0
  9 10  1  0  0  0  0
  9 34  1  0  0  0  0
 10 11  1  0  0  0  0
 10 12  2  0  0  0  0
 12 13  1  0  0  0  0
 12 35  1  0  0  0  0
 13 14  2  0  0  0  0
 13 36  1  0  0  0  0
 14 37  1  0  0  0  0
 15 16  2  0  0  0  0
 15 17  1  0  0  0  0
 17 18  2  0  0  0  0
 17 38  1  0  0  0  0
 18 39  1  0  0  0  0
 19 20  2  0  0  0  0
 19 24  1  0  0  0  0
 20 21  1  0  0  0  0
 20 40  1  0  0  0  0
 21 22  2  0  0  0  0
 21 41  1  0  0  0  0
 22 23  1  0  0  0  0
 22 42  1  0  0  0  0
 23 24  2  0  0  0  0
 23 28  1  0  0  0  0
 24 25  1  0  0  0  0
 25 26  2  0  0  0  0
 25 43  1  0  0  0  0
 26 27  1  0  0  0  0
 27 28  1  0  0  0  0
 27 44  1  0  0  0  0
 28 29  2  0  0  0  0
M  END
$$$$
