
 OpenBabel01122422503D

 50 53  0  0  1  0  0  0  0  0999 V2000
    1.1504    0.0105    0.0741 C   0  0  0  0  0  0  0  0  0  0  0  0
    2.6859   -0.0263    0.0754 C   0  0  3  0  0  0  0  0  0  0  0  0
    3.2092   -0.7178    1.2444 N   0  0  0  0  0  0  0  0  0  0  0  0
    3.3528   -0.0784    2.4514 C   0  0  0  0  0  0  0  0  0  0  0  0
    3.1743    1.1234    2.6315 O   0  0  0  0  0  0  0  0  0  0  0  0
    3.7063   -0.9810    3.6411 C   0  0  0  0  0  0  0  0  0  0  0  0
    3.8217   -2.2621    3.4619 N   0  0  0  0  0  0  0  0  0  0  0  0
    4.0421   -3.0560    4.5869 N   0  0  0  0  0  0  0  0  0  0  0  0
    4.2361   -4.4559    4.3120 C   0  0  0  0  0  0  0  0  0  0  0  0
    4.0102   -5.4347    5.2978 C   0  0  0  0  0  0  0  0  0  0  0  0
    4.2743   -6.7903    5.0682 C   0  0  0  0  0  0  0  0  0  0  0  0
    4.7574   -7.2065    3.8346 C   0  0  0  0  0  0  0  0  0  0  0  0
    4.9560   -6.2666    2.8276 C   0  0  0  0  0  0  0  0  0  0  0  0
    4.6937   -4.9121    3.0628 C   0  0  0  0  0  0  0  0  0  0  0  0
    4.9631   -4.0615    2.0588 F   0  0  0  0  0  0  0  0  0  0  0  0
    4.0614   -2.5391    5.8927 C   0  0  0  0  0  0  0  0  0  0  0  0
    4.2038   -3.1557    6.9468 O   0  0  0  0  0  0  0  0  0  0  0  0
    3.9680   -1.0698    6.0106 C   0  0  0  0  0  0  0  0  0  0  0  0
    3.8451   -0.2948    4.9359 C   0  0  0  0  0  0  0  0  0  0  0  0
    3.1422   -0.6429   -1.2338 C   0  0  0  0  0  0  0  0  0  0  0  0
    3.3785    0.1837   -2.3390 C   0  0  0  0  0  0  0  0  0  0  0  0
    3.5699   -0.3641   -3.6135 C   0  0  0  0  0  0  0  0  0  0  0  0
    3.5558   -1.7539   -3.8263 C   0  0  0  0  0  0  0  0  0  0  0  0
    3.5986   -2.3313   -5.1881 C   0  0  0  0  0  0  0  0  0  0  0  0
    4.2482   -1.7031   -6.2591 C   0  0  0  0  0  0  0  0  0  0  0  0
    4.1788   -2.2364   -7.5472 C   0  0  0  0  0  0  0  0  0  0  0  0
    3.4659   -3.4051   -7.7395 C   0  0  0  0  0  0  0  0  0  0  0  0
    2.8476   -4.0696   -6.7463 N   0  0  0  0  0  0  0  0  0  0  0  0
    2.9284   -3.5183   -5.5088 C   0  0  0  0  0  0  0  0  0  0  0  0
    3.4110   -2.5692   -2.6905 C   0  0  0  0  0  0  0  0  0  0  0  0
    3.1840   -2.0298   -1.4231 C   0  0  0  0  0  0  0  0  0  0  0  0
    0.7549    0.4845    0.9775 H   0  0  0  0  0  0  0  0  0  0  0  0
    0.7234   -0.9980    0.0133 H   0  0  0  0  0  0  0  0  0  0  0  0
    0.7734    0.5733   -0.7898 H   0  0  0  0  0  0  0  0  0  0  0  0
    3.0474    1.0085    0.1247 H   0  0  0  0  0  0  0  0  0  0  0  0
    3.3408   -1.7226    1.2480 H   0  0  0  0  0  0  0  0  0  0  0  0
    3.6005   -5.1779    6.2707 H   0  0  0  0  0  0  0  0  0  0  0  0
    4.1036   -7.5120    5.8643 H   0  0  0  0  0  0  0  0  0  0  0  0
    4.9783   -8.2562    3.6616 H   0  0  0  0  0  0  0  0  0  0  0  0
    5.3355   -6.5743    1.8578 H   0  0  0  0  0  0  0  0  0  0  0  0
    4.0384   -0.6637    7.0127 H   0  0  0  0  0  0  0  0  0  0  0  0
    3.8166    0.7852    4.9882 H   0  0  0  0  0  0  0  0  0  0  0  0
    3.3531    1.2676   -2.2336 H   0  0  0  0  0  0  0  0  0  0  0  0
    3.6705    0.3261   -4.4491 H   0  0  0  0  0  0  0  0  0  0  0  0
    4.8106   -0.7855   -6.1091 H   0  0  0  0  0  0  0  0  0  0  0  0
    4.6647   -1.7425   -8.3809 H   0  0  0  0  0  0  0  0  0  0  0  0
    3.3663   -3.8483   -8.7259 H   0  0  0  0  0  0  0  0  0  0  0  0
    2.3847   -4.0832   -4.7557 H   0  0  0  0  0  0  0  0  0  0  0  0
    3.4300   -3.6520   -2.7768 H   0  0  0  0  0  0  0  0  0  0  0  0
    2.9915   -2.7125   -0.6016 H   0  0  0  0  0  0  0  0  0  0  0  0
  1  2  1  0  0  0  0
  1 32  1  0  0  0  0
  1 33  1  0  0  0  0
  1 34  1  0  0  0  0
  2  3  1  0  0  0  0
  2 20  1  0  0  0  0
  2 35  1  0  0  0  0
  3  4  1  0  0  0  0
  3 36  1  0  0  0  0
  4  5  2  0  0  0  0
  4  6  1  0  0  0  0
  6  7  2  0  0  0  0
  6 19  1  0  0  0  0
  7  8  1  0  0  0  0
  8  9  1  0  0  0  0
  8 16  1  0  0  0  0
  9 10  2  0  0  0  0
  9 14  1  0  0  0  0
 10 11  1  0  0  0  0
 10 37  1  0  0  0  0
 11 12  2  0  0  0  0
 11 38  1  0  0  0  0
 12 13  1  0  0  0  0
 12 39  1  0  0  0  0
 13 14  2  0  0  0  0
 13 40  1  0  0  0  0
 14 15  1  0  0  0  0
 16 17  2  0  0  0  0
 16 18  1  0  0  0  0
 18 19  2  0  0  0  0
 18 41  1  0  0  0  0
 19 42  1  0  0  0  0
 20 21  2  0  0  0  0
 20 31  1  0  0  0  0
 21 22  1  0  0  0  0
 21 43  1  0  0  0  0
 22 23  2  0  0  0  0
 22 44  1  0  0  0  0
 23 24  1  0  0  0  0
 23 30  1  0  0  0  0
 24 25  2  0  0  0  0
 24 29  1  0  0  0  0
 25 26  1  0  0  0  0
 25 45  1  0  0  0  0
 26 27  2  0  0  0  0
 26 46  1  0  0  0  0
 27 28  1  0  0  0  0
 27 47  1  0  0  0  0
 28 29  2  0  0  0  0
 29 48  1  0  0  0  0
 30 31  2  0  0  0  0
 30 49  1  0  0  0  0
 31 50  1  0  0  0  0
M  END
$$$$
