
 OpenBabel01122422503D

 44 47  0  0  0  0  0  0  0  0999 V2000
    2.4349    1.1532   -0.1596 O   0  0  0  0  0  0  0  0  0  0  0  0
    3.3150    0.3413   -0.4148 C   0  0  0  0  0  0  0  0  0  0  0  0
    3.4369   -0.4489   -1.5368 N   0  0  0  0  0  0  0  0  0  0  0  0
    2.5283   -0.6190   -2.5879 C   0  0  0  0  0  0  0  0  0  0  0  0
    1.3410    0.0955   -2.7187 C   0  0  0  0  0  0  0  0  0  0  0  0
    0.4767   -0.1747   -3.7827 C   0  0  0  0  0  0  0  0  0  0  0  0
    0.8041   -1.1464   -4.7309 C   0  0  0  0  0  0  0  0  0  0  0  0
    2.0072   -1.8536   -4.6279 C   0  0  0  0  0  0  0  0  0  0  0  0
    2.4097   -2.8900   -5.6519 C   0  0  0  0  0  0  0  0  0  0  0  0
    1.9266   -4.2286   -5.3273 N   0  0  0  0  0  0  0  0  0  0  0  0
    0.7255   -4.6658   -5.8670 C   0  0  0  0  0  0  0  0  0  0  0  0
    0.2365   -5.8770   -5.5790 C   0  0  0  0  0  0  0  0  0  0  0  0
    0.9490   -6.7453   -4.6750 C   0  0  0  0  0  0  0  0  0  0  0  0
    2.1123   -6.3581   -4.1412 C   0  0  0  0  0  0  0  0  0  0  0  0
    2.6886   -5.0209   -4.4740 C   0  0  0  0  0  0  0  0  0  0  0  0
    3.7785   -4.7076   -3.9967 O   0  0  0  0  0  0  0  0  0  0  0  0
    2.8510   -1.5915   -3.5390 C   0  0  0  0  0  0  0  0  0  0  0  0
    4.3958    0.0581    0.5842 C   0  0  0  0  0  0  0  0  0  0  0  0
    4.3490    0.6452    1.8360 C   0  0  0  0  0  0  0  0  0  0  0  0
    5.2499    0.1945    2.7909 C   0  0  0  0  0  0  0  0  0  0  0  0
    6.2063   -0.7697    2.4459 C   0  0  0  0  0  0  0  0  0  0  0  0
    7.1529   -1.2214    3.3766 C   0  0  0  0  0  0  0  0  0  0  0  0
    8.1245   -2.1288    2.9780 C   0  0  0  0  0  0  0  0  0  0  0  0
    9.0584   -2.5182    3.8551 F   0  0  0  0  0  0  0  0  0  0  0  0
    8.1388   -2.6109    1.6781 C   0  0  0  0  0  0  0  0  0  0  0  0
    9.0843   -3.4782    1.2924 F   0  0  0  0  0  0  0  0  0  0  0  0
    7.1812   -2.1944    0.7597 C   0  0  0  0  0  0  0  0  0  0  0  0
    6.2133   -1.2702    1.1205 C   0  0  0  0  0  0  0  0  0  0  0  0
    5.3157   -0.8795    0.2079 N   0  0  0  0  0  0  0  0  0  0  0  0
    4.2586   -1.0513   -1.5293 H   0  0  0  0  0  0  0  0  0  0  0  0
    1.0593    0.8628   -2.0046 H   0  0  0  0  0  0  0  0  0  0  0  0
   -0.4542    0.3805   -3.8680 H   0  0  0  0  0  0  0  0  0  0  0  0
    0.1164   -1.3397   -5.5499 H   0  0  0  0  0  0  0  0  0  0  0  0
    3.5042   -2.9150   -5.7297 H   0  0  0  0  0  0  0  0  0  0  0  0
    2.0500   -2.5934   -6.6452 H   0  0  0  0  0  0  0  0  0  0  0  0
    0.2023   -3.9921   -6.5392 H   0  0  0  0  0  0  0  0  0  0  0  0
   -0.6990   -6.2236   -6.0046 H   0  0  0  0  0  0  0  0  0  0  0  0
    0.5194   -7.7100   -4.4379 H   0  0  0  0  0  0  0  0  0  0  0  0
    2.6851   -6.9740   -3.4557 H   0  0  0  0  0  0  0  0  0  0  0  0
    3.7686   -2.1689   -3.4335 H   0  0  0  0  0  0  0  0  0  0  0  0
    3.6081    1.4028    2.0697 H   0  0  0  0  0  0  0  0  0  0  0  0
    5.1959    0.5956    3.7999 H   0  0  0  0  0  0  0  0  0  0  0  0
    7.1566   -0.8606    4.4009 H   0  0  0  0  0  0  0  0  0  0  0  0
    7.2075   -2.5912   -0.2511 H   0  0  0  0  0  0  0  0  0  0  0  0
  1  2  2  0  0  0  0
  2  3  1  0  0  0  0
  2 18  1  0  0  0  0
  3  4  1  0  0  0  0
  3 30  1  0  0  0  0
  4  5  2  0  0  0  0
  4 17  1  0  0  0  0
  5  6  1  0  0  0  0
  5 31  1  0  0  0  0
  6  7  2  0  0  0  0
  6 32  1  0  0  0  0
  7  8  1  0  0  0  0
  7 33  1  0  0  0  0
  8  9  1  0  0  0  0
  8 17  2  0  0  0  0
  9 10  1  0  0  0  0
  9 34  1  0  0  0  0
  9 35  1  0  0  0  0
 10 11  1  0  0  0  0
 10 15  1  0  0  0  0
 11 12  2  0  0  0  0
 11 36  1  0  0  0  0
 12 13  1  0  0  0  0
 12 37  1  0  0  0  0
 13 14  2  0  0  0  0
 13 38  1  0  0  0  0
 14 15  1  0  0  0  0
 14 39  1  0  0  0  0
 15 16  2  0  0  0  0
 17 40  1  0  0  0  0
 18 19  2  0  0  0  0
 18 29  1  0  0  0  0
 19 20  1  0  0  0  0
 19 41  1  0  0  0  0
 20 21  2  0  0  0  0
 20 42  1  0  0  0  0
 21 22  1  0  0  0  0
 21 28  1  0  0  0  0
 22 23  2  0  0  0  0
 22 43  1  0  0  0  0
 23 24  1  0  0  0  0
 23 25  1  0  0  0  0
 25 26  1  0  0  0  0
 25 27  2  0  0  0  0
 27 28  1  0  0  0  0
 27 44  1  0  0  0  0
 28 29  2  0  0  0  0
M  END
$$$$
