
 OpenBabel01122422503D

 45 48  0  0  0  0  0  0  0  0999 V2000
    2.8500    2.1162   -1.1579 O   0  0  0  0  0  0  0  0  0  0  0  0
    3.2127    1.1348   -0.5082 C   0  0  0  0  0  0  0  0  0  0  0  0
    2.9536    1.0361    0.8477 N   0  0  0  0  0  0  0  0  0  0  0  0
    2.2270    2.0891    1.5172 C   0  0  0  0  0  0  0  0  0  0  0  0
    3.1443    3.0618    2.1931 C   0  0  0  0  0  0  0  0  0  0  0  0
    3.7342    4.1186    1.4854 C   0  0  0  0  0  0  0  0  0  0  0  0
    4.5750    5.0203    2.1425 C   0  0  0  0  0  0  0  0  0  0  0  0
    4.8505    4.8658    3.5031 C   0  0  0  0  0  0  0  0  0  0  0  0
    5.6674    5.8201    4.0635 O   0  0  0  0  0  0  0  0  0  0  0  0
    6.5290    5.4797    5.0809 C   0  0  0  0  0  0  0  0  0  0  0  0
    7.1634    4.2402    5.1981 C   0  0  0  0  0  0  0  0  0  0  0  0
    8.0235    3.9917    6.2715 C   0  0  0  0  0  0  0  0  0  0  0  0
    8.2931    4.9986    7.1992 C   0  0  0  0  0  0  0  0  0  0  0  0
    7.7020    6.2529    7.0556 C   0  0  0  0  0  0  0  0  0  0  0  0
    6.8232    6.4926    5.9973 C   0  0  0  0  0  0  0  0  0  0  0  0
    4.2395    3.8367    4.2187 C   0  0  0  0  0  0  0  0  0  0  0  0
    3.4187    2.9327    3.5541 C   0  0  0  0  0  0  0  0  0  0  0  0
    2.8798    1.9175    4.2447 F   0  0  0  0  0  0  0  0  0  0  0  0
    3.8194   -0.0441   -1.1930 C   0  0  0  0  0  0  0  0  0  0  0  0
    3.5096   -1.3604   -0.8184 C   0  0  0  0  0  0  0  0  0  0  0  0
    3.6577   -2.4082   -1.7413 C   0  0  0  0  0  0  0  0  0  0  0  0
    3.9731   -2.1298   -3.0736 C   0  0  0  0  0  0  0  0  0  0  0  0
    4.2469   -0.8113   -3.4259 C   0  0  0  0  0  0  0  0  0  0  0  0
    4.3510    0.1732   -2.4585 C   0  0  0  0  0  0  0  0  0  0  0  0
    4.7687    1.5011   -2.8931 C   0  0  0  0  0  0  0  0  0  0  0  0
    5.4956    2.1984   -2.1999 O   0  0  0  0  0  0  0  0  0  0  0  0
    4.2253    1.8523   -4.1016 N   0  0  0  0  0  0  0  0  0  0  0  0
    3.9532    0.9425   -5.1004 N   0  0  0  0  0  0  0  0  0  0  0  0
    4.0398   -0.3207   -4.7962 C   0  0  0  0  0  0  0  0  0  0  0  0
    3.3127    0.2656    1.3896 H   0  0  0  0  0  0  0  0  0  0  0  0
    1.5525    1.6106    2.2333 H   0  0  0  0  0  0  0  0  0  0  0  0
    1.5833    2.6189    0.8069 H   0  0  0  0  0  0  0  0  0  0  0  0
    3.5393    4.2468    0.4205 H   0  0  0  0  0  0  0  0  0  0  0  0
    5.0185    5.8461    1.5903 H   0  0  0  0  0  0  0  0  0  0  0  0
    6.9955    3.4510    4.4710 H   0  0  0  0  0  0  0  0  0  0  0  0
    8.4895    3.0145    6.3806 H   0  0  0  0  0  0  0  0  0  0  0  0
    8.9709    4.8095    8.0287 H   0  0  0  0  0  0  0  0  0  0  0  0
    7.9272    7.0453    7.7645 H   0  0  0  0  0  0  0  0  0  0  0  0
    6.3701    7.4744    5.8849 H   0  0  0  0  0  0  0  0  0  0  0  0
    4.3908    3.7152    5.2848 H   0  0  0  0  0  0  0  0  0  0  0  0
    3.0491   -1.5801    0.1417 H   0  0  0  0  0  0  0  0  0  0  0  0
    3.3957   -3.4287   -1.4545 H   0  0  0  0  0  0  0  0  0  0  0  0
    3.9214   -2.9146   -3.8266 H   0  0  0  0  0  0  0  0  0  0  0  0
    4.1146    2.8339   -4.3017 H   0  0  0  0  0  0  0  0  0  0  0  0
    3.8449   -1.0614   -5.5894 H   0  0  0  0  0  0  0  0  0  0  0  0
  1  2  2  0  0  0  0
  2  3  1  0  0  0  0
  2 19  1  0  0  0  0
  3  4  1  0  0  0  0
  3 30  1  0  0  0  0
  4  5  1  0  0  0  0
  4 31  1  0  0  0  0
  4 32  1  0  0  0  0
  5  6  2  0  0  0  0
  5 17  1  0  0  0  0
  6  7  1  0  0  0  0
  6 33  1  0  0  0  0
  7  8  2  0  0  0  0
  7 34  1  0  0  0  0
  8  9  1  0  0  0  0
  8 16  1  0  0  0  0
  9 10  1  0  0  0  0
 10 11  2  0  0  0  0
 10 15  1  0  0  0  0
 11 12  1  0  0  0  0
 11 35  1  0  0  0  0
 12 13  2  0  0  0  0
 12 36  1  0  0  0  0
 13 14  1  0  0  0  0
 13 37  1  0  0  0  0
 14 15  2  0  0  0  0
 14 38  1  0  0  0  0
 15 39  1  0  0  0  0
 16 17  2  0  0  0  0
 16 40  1  0  0  0  0
 17 18  1  0  0  0  0
 19 20  2  0  0  0  0
 19 24  1  0  0  0  0
 20 21  1  0  0  0  0
 20 41  1  0  0  0  0
 21 22  2  0  0  0  0
 21 42  1  0  0  0  0
 22 23  1  0  0  0  0
 22 43  1  0  0  0  0
 23 24  2  0  0  0  0
 23 29  1  0  0  0  0
 24 25  1  0  0  0  0
 25 26  2  0  0  0  0
 25 27  1  0  0  0  0
 27 28  1  0  0  0  0
 27 44  1  0  0  0  0
 28 29  2  0  0  0  0
 29 45  1  0  0  0  0
M  END
$$$$
