
 OpenBabel01122422503D

 49 51  0  0  0  0  0  0  0  0999 V2000
   -7.5913    4.9826   -0.7610 N   0  0  0  0  0  0  0  0  0  0  0  0
   -6.9657    4.1223   -0.2967 C   0  0  0  0  0  0  0  0  0  0  0  0
   -6.1198    3.1269    0.2889 C   0  0  0  0  0  0  0  0  0  0  0  0
   -4.7431    3.1989    0.0019 C   0  0  0  0  0  0  0  0  0  0  0  0
   -3.8262    2.4090    0.6887 C   0  0  0  0  0  0  0  0  0  0  0  0
   -2.3385    2.5003    0.5655 C   0  0  0  0  0  0  0  0  0  0  0  0
   -1.7105    1.4441    0.7119 O   0  0  0  0  0  0  0  0  0  0  0  0
   -1.6639    3.7130    0.3344 N   0  0  0  0  0  0  0  0  0  0  0  0
   -0.1816    3.7050    0.3542 C   0  0  0  0  0  0  0  0  0  0  0  0
    0.6505    2.9271   -0.6818 C   0  0  0  0  0  0  0  0  0  0  0  0
    0.1457    1.7760   -1.1964 N   0  0  0  0  0  0  0  0  0  0  0  0
    1.8085    3.2421   -0.9548 O   0  0  0  0  0  0  0  0  0  0  0  0
   -2.2702    5.0496    0.3924 C   0  0  0  0  0  0  0  0  0  0  0  0
   -3.0591    5.4049    1.6326 C   0  0  0  0  0  0  0  0  0  0  0  0
   -2.7421    4.9747    2.9258 C   0  0  0  0  0  0  0  0  0  0  0  0
   -3.5256    5.3750    4.0313 C   0  0  0  0  0  0  0  0  0  0  0  0
   -4.6303    6.2342    3.8834 C   0  0  0  0  0  0  0  0  0  0  0  0
   -5.4806    6.7009    5.0129 C   0  0  0  0  0  0  0  0  0  0  0  0
   -4.9934    6.8593    6.3220 C   0  0  0  0  0  0  0  0  0  0  0  0
   -5.7884    7.4192    7.3345 C   0  0  0  0  0  0  0  0  0  0  0  0
   -7.0891    7.8355    7.0629 C   0  0  0  0  0  0  0  0  0  0  0  0
   -7.6133    7.6518    5.7915 C   0  0  0  0  0  0  0  0  0  0  0  0
   -6.8253    7.0732    4.7927 C   0  0  0  0  0  0  0  0  0  0  0  0
   -4.8913    6.6916    2.5796 C   0  0  0  0  0  0  0  0  0  0  0  0
   -4.1321    6.2879    1.4817 C   0  0  0  0  0  0  0  0  0  0  0  0
   -4.3620    1.4454    1.5325 C   0  0  0  0  0  0  0  0  0  0  0  0
   -5.6943    1.2890    1.7702 N   0  0  0  0  0  0  0  0  0  0  0  0
   -6.5775    2.1485    1.1708 C   0  0  0  0  0  0  0  0  0  0  0  0
   -8.0599    1.9722    1.4989 C   0  0  0  0  0  0  0  0  0  0  0  0
   -8.8958    2.8224    0.8397 F   0  0  0  0  0  0  0  0  0  0  0  0
   -8.5172    0.7244    1.1916 F   0  0  0  0  0  0  0  0  0  0  0  0
   -8.3327    2.1579    2.8218 F   0  0  0  0  0  0  0  0  0  0  0  0
   -4.4124    3.9005   -0.7569 H   0  0  0  0  0  0  0  0  0  0  0  0
    0.1399    3.4031    1.3564 H   0  0  0  0  0  0  0  0  0  0  0  0
    0.1543    4.7393    0.1994 H   0  0  0  0  0  0  0  0  0  0  0  0
   -0.5495    1.2890   -0.6419 H   0  0  0  0  0  0  0  0  0  0  0  0
    0.8110    1.1912   -1.6887 H   0  0  0  0  0  0  0  0  0  0  0  0
   -2.8834    5.1572   -0.5053 H   0  0  0  0  0  0  0  0  0  0  0  0
   -1.4993    5.8206    0.2838 H   0  0  0  0  0  0  0  0  0  0  0  0
   -1.8861    4.3260    3.1000 H   0  0  0  0  0  0  0  0  0  0  0  0
   -3.2486    4.9992    5.0149 H   0  0  0  0  0  0  0  0  0  0  0  0
   -3.9729    6.5830    6.5744 H   0  0  0  0  0  0  0  0  0  0  0  0
   -5.3824    7.5496    8.3344 H   0  0  0  0  0  0  0  0  0  0  0  0
   -7.6930    8.2999    7.8377 H   0  0  0  0  0  0  0  0  0  0  0  0
   -8.6288    7.9655    5.5646 H   0  0  0  0  0  0  0  0  0  0  0  0
   -7.2867    6.9322    3.8178 H   0  0  0  0  0  0  0  0  0  0  0  0
   -5.6917    7.4054    2.3932 H   0  0  0  0  0  0  0  0  0  0  0  0
   -4.3911    6.6891    0.5036 H   0  0  0  0  0  0  0  0  0  0  0  0
   -3.7247    0.7438    2.0685 H   0  0  0  0  0  0  0  0  0  0  0  0
  1  2  3  0  0  0  0
  2  3  1  0  0  0  0
  3  4  2  0  0  0  0
  3 28  1  0  0  0  0
  4  5  1  0  0  0  0
  4 33  1  0  0  0  0
  5  6  1  0  0  0  0
  5 26  2  0  0  0  0
  6  7  2  0  0  0  0
  6  8  1  0  0  0  0
  8  9  1  0  0  0  0
  8 13  1  0  0  0  0
  9 10  1  0  0  0  0
  9 34  1  0  0  0  0
  9 35  1  0  0  0  0
 10 11  1  0  0  0  0
 10 12  2  0  0  0  0
 11 36  1  0  0  0  0
 11 37  1  0  0  0  0
 13 14  1  0  0  0  0
 13 38  1  0  0  0  0
 13 39  1  0  0  0  0
 14 15  2  0  0  0  0
 14 25  1  0  0  0  0
 15 16  1  0  0  0  0
 15 40  1  0  0  0  0
 16 17  2  0  0  0  0
 16 41  1  0  0  0  0
 17 18  1  0  0  0  0
 17 24  1  0  0  0  0
 18 19  2  0  0  0  0
 18 23  1  0  0  0  0
 19 20  1  0  0  0  0
 19 42  1  0  0  0  0
 20 21  2  0  0  0  0
 20 43  1  0  0  0  0
 21 22  1  0  0  0  0
 21 44  1  0  0  0  0
 22 23  2  0  0  0  0
 22 45  1  0  0  0  0
 23 46  1  0  0  0  0
 24 25  2  0  0  0  0
 24 47  1  0  0  0  0
 25 48  1  0  0  0  0
 26 27  1  0  0  0  0
 26 49  1  0  0  0  0
 27 28  2  0  0  0  0
 28 29  1  0  0  0  0
 29 30  1  0  0  0  0
 29 31  1  0  0  0  0
 29 32  1  0  0  0  0
M  END
$$$$
