
 OpenBabel01122422503D

 45 48  0  0  0  0  0  0  0  0999 V2000
    1.1309   -0.6954    0.3386 O   0  0  0  0  0  0  0  0  0  0  0  0
    2.3181   -0.4335    0.1566 C   0  0  0  0  0  0  0  0  0  0  0  0
    2.9769   -0.6232   -1.0501 N   0  0  0  0  0  0  0  0  0  0  0  0
    2.2950   -1.2330   -2.0885 C   0  0  0  0  0  0  0  0  0  0  0  0
    1.6416   -0.6010   -3.1250 C   0  0  0  0  0  0  0  0  0  0  0  0
    1.4649    0.8113   -3.5487 C   0  0  0  0  0  0  0  0  0  0  0  0
    0.2606    1.4809   -2.9365 C   0  0  0  0  0  0  0  0  0  0  0  0
    0.3817    2.2107   -1.7457 C   0  0  0  0  0  0  0  0  0  0  0  0
   -0.7424    2.7803   -1.1479 C   0  0  0  0  0  0  0  0  0  0  0  0
   -1.9963    2.6325   -1.7372 C   0  0  0  0  0  0  0  0  0  0  0  0
   -2.1258    1.9279   -2.9325 C   0  0  0  0  0  0  0  0  0  0  0  0
   -1.0034    1.3540   -3.5307 C   0  0  0  0  0  0  0  0  0  0  0  0
    1.1447   -1.5460   -3.9758 O   0  0  0  0  0  0  0  0  0  0  0  0
    1.5046   -2.8056   -3.5302 N   0  0  0  0  0  0  0  0  0  0  0  0
    2.1962   -2.6021   -2.4077 C   0  0  0  0  0  0  0  0  0  0  0  0
    3.1510    0.1620    1.2611 C   0  0  0  0  0  0  0  0  0  0  0  0
    2.4780    0.6679    2.3146 C   0  0  0  0  0  0  0  0  0  0  0  0
    3.1097    1.3902    3.3245 N   0  0  0  0  0  0  0  0  0  0  0  0
    2.3635    1.9157    4.4218 C   0  0  0  0  0  0  0  0  0  0  0  0
    1.6168    1.0494    5.2310 C   0  0  0  0  0  0  0  0  0  0  0  0
    0.9598    1.5384    6.3656 C   0  0  0  0  0  0  0  0  0  0  0  0
    1.0127    2.8980    6.6753 C   0  0  0  0  0  0  0  0  0  0  0  0
    1.7150    3.7748    5.8492 C   0  0  0  0  0  0  0  0  0  0  0  0
    2.3953    3.2814    4.7345 C   0  0  0  0  0  0  0  0  0  0  0  0
    3.0158    4.1512    3.9263 F   0  0  0  0  0  0  0  0  0  0  0  0
    4.4916    1.6323    3.3020 C   0  0  0  0  0  0  0  0  0  0  0  0
    5.1437    2.2406    4.1479 O   0  0  0  0  0  0  0  0  0  0  0  0
    5.2345    0.9877    2.1844 C   0  0  0  0  0  0  0  0  0  0  0  0
    4.5943    0.2851    1.2409 C   0  0  0  0  0  0  0  0  0  0  0  0
    3.9373   -0.9260   -0.9500 H   0  0  0  0  0  0  0  0  0  0  0  0
    1.3888    0.8642   -4.6429 H   0  0  0  0  0  0  0  0  0  0  0  0
    2.3682    1.3825   -3.2989 H   0  0  0  0  0  0  0  0  0  0  0  0
    1.3509    2.3278   -1.2677 H   0  0  0  0  0  0  0  0  0  0  0  0
   -0.6415    3.3273   -0.2144 H   0  0  0  0  0  0  0  0  0  0  0  0
   -2.8743    3.0591   -1.2600 H   0  0  0  0  0  0  0  0  0  0  0  0
   -3.1040    1.8121   -3.3917 H   0  0  0  0  0  0  0  0  0  0  0  0
   -1.1227    0.7950   -4.4565 H   0  0  0  0  0  0  0  0  0  0  0  0
    2.5874   -3.4577   -1.8770 H   0  0  0  0  0  0  0  0  0  0  0  0
    1.3935    0.6003    2.3846 H   0  0  0  0  0  0  0  0  0  0  0  0
    1.5890   -0.0163    5.0228 H   0  0  0  0  0  0  0  0  0  0  0  0
    0.4228    0.8541    7.0190 H   0  0  0  0  0  0  0  0  0  0  0  0
    0.5063    3.2755    7.5609 H   0  0  0  0  0  0  0  0  0  0  0  0
    1.7418    4.8381    6.0612 H   0  0  0  0  0  0  0  0  0  0  0  0
    6.3126    1.0948    2.2085 H   0  0  0  0  0  0  0  0  0  0  0  0
    5.1848   -0.2088    0.4794 H   0  0  0  0  0  0  0  0  0  0  0  0
  1  2  2  0  0  0  0
  2  3  1  0  0  0  0
  2 16  1  0  0  0  0
  3  4  1  0  0  0  0
  3 30  1  0  0  0  0
  4  5  2  0  0  0  0
  4 15  1  0  0  0  0
  5  6  1  0  0  0  0
  5 13  1  0  0  0  0
  6  7  1  0  0  0  0
  6 31  1  0  0  0  0
  6 32  1  0  0  0  0
  7  8  2  0  0  0  0
  7 12  1  0  0  0  0
  8  9  1  0  0  0  0
  8 33  1  0  0  0  0
  9 10  2  0  0  0  0
  9 34  1  0  0  0  0
 10 11  1  0  0  0  0
 10 35  1  0  0  0  0
 11 12  2  0  0  0  0
 11 36  1  0  0  0  0
 12 37  1  0  0  0  0
 13 14  1  0  0  0  0
 14 15  2  0  0  0  0
 15 38  1  0  0  0  0
 16 17  2  0  0  0  0
 16 29  1  0  0  0  0
 17 18  1  0  0  0  0
 17 39  1  0  0  0  0
 18 19  1  0  0  0  0
 18 26  1  0  0  0  0
 19 20  2  0  0  0  0
 19 24  1  0  0  0  0
 20 21  1  0  0  0  0
 20 40  1  0  0  0  0
 21 22  2  0  0  0  0
 21 41  1  0  0  0  0
 22 23  1  0  0  0  0
 22 42  1  0  0  0  0
 23 24  2  0  0  0  0
 23 43  1  0  0  0  0
 24 25  1  0  0  0  0
 26 27  2  0  0  0  0
 26 28  1  0  0  0  0
 28 29  2  0  0  0  0
 28 44  1  0  0  0  0
 29 45  1  0  0  0  0
M  END
$$$$
