
 OpenBabel01122422503D

 47 50  0  0  0  0  0  0  0  0999 V2000
    1.0521    0.1021   -0.3678 O   0  0  0  0  0  0  0  0  0  0  0  0
    2.2625   -0.0276   -0.2173 C   0  0  0  0  0  0  0  0  0  0  0  0
    2.9155   -1.0655    0.4348 N   0  0  0  0  0  0  0  0  0  0  0  0
    2.3003   -2.2484    0.9278 C   0  0  0  0  0  0  0  0  0  0  0  0
    1.0055   -2.6029    0.5137 C   0  0  0  0  0  0  0  0  0  0  0  0
    0.3809   -3.7632    0.9690 C   0  0  0  0  0  0  0  0  0  0  0  0
    1.0593   -4.6228    1.8162 C   0  0  0  0  0  0  0  0  0  0  0  0
    2.3499   -4.3035    2.2327 C   0  0  0  0  0  0  0  0  0  0  0  0
    2.9786   -3.1046    1.8276 C   0  0  0  0  0  0  0  0  0  0  0  0
    4.3035   -2.7793    2.4893 C   0  0  0  0  0  0  0  0  0  0  0  0
    5.5594   -3.3572    1.8862 C   0  0  0  0  0  0  0  0  0  0  0  0
    6.6407   -3.7079    2.7083 C   0  0  0  0  0  0  0  0  0  0  0  0
    7.8636   -4.0612    2.1435 C   0  0  0  0  0  0  0  0  0  0  0  0
    7.9716   -4.0523    0.7651 C   0  0  0  0  0  0  0  0  0  0  0  0
    6.9474   -3.7565   -0.0626 N   0  0  0  0  0  0  0  0  0  0  0  0
    5.7668   -3.4286    0.5133 C   0  0  0  0  0  0  0  0  0  0  0  0
    3.1173    1.0811   -0.7125 C   0  0  0  0  0  0  0  0  0  0  0  0
    4.3816    0.8635   -1.2649 C   0  0  0  0  0  0  0  0  0  0  0  0
    5.1144    1.9470   -1.7550 C   0  0  0  0  0  0  0  0  0  0  0  0
    4.5859    3.2411   -1.6954 C   0  0  0  0  0  0  0  0  0  0  0  0
    3.3164    3.4639   -1.1479 C   0  0  0  0  0  0  0  0  0  0  0  0
    2.7593    4.8475   -1.1239 C   0  0  0  0  0  0  0  0  0  0  0  0
    3.1028    5.6880   -2.0538 N   0  0  0  0  0  0  0  0  0  0  0  0
    2.5453    6.9344   -1.9984 N   0  0  0  0  0  0  0  0  0  0  0  0
    1.6484    7.3773   -1.0607 C   0  0  0  0  0  0  0  0  0  0  0  0
    1.1517    8.4936   -1.0713 O   0  0  0  0  0  0  0  0  0  0  0  0
    1.3104    6.4106    0.0009 C   0  0  0  0  0  0  0  0  0  0  0  0
    1.8435    5.1869   -0.0041 C   0  0  0  0  0  0  0  0  0  0  0  0
    2.5782    2.3764   -0.6745 C   0  0  0  0  0  0  0  0  0  0  0  0
    3.8954   -0.9331    0.6437 H   0  0  0  0  0  0  0  0  0  0  0  0
    0.4386   -1.9922   -0.1824 H   0  0  0  0  0  0  0  0  0  0  0  0
   -0.6345   -3.9846    0.6515 H   0  0  0  0  0  0  0  0  0  0  0  0
    0.5785   -5.5325    2.1667 H   0  0  0  0  0  0  0  0  0  0  0  0
    2.8578   -4.9839    2.9131 H   0  0  0  0  0  0  0  0  0  0  0  0
    4.2317   -3.1146    3.5341 H   0  0  0  0  0  0  0  0  0  0  0  0
    4.4322   -1.6932    2.5636 H   0  0  0  0  0  0  0  0  0  0  0  0
    6.5482   -3.6863    3.7926 H   0  0  0  0  0  0  0  0  0  0  0  0
    8.7177   -4.3136    2.7633 H   0  0  0  0  0  0  0  0  0  0  0  0
    8.9137   -4.2807    0.2748 H   0  0  0  0  0  0  0  0  0  0  0  0
    4.9771   -3.2009   -0.1949 H   0  0  0  0  0  0  0  0  0  0  0  0
    4.7877   -0.1398   -1.3647 H   0  0  0  0  0  0  0  0  0  0  0  0
    6.0932    1.7847   -2.2019 H   0  0  0  0  0  0  0  0  0  0  0  0
    5.1662    4.0743   -2.0887 H   0  0  0  0  0  0  0  0  0  0  0  0
    2.7926    7.5773   -2.7449 H   0  0  0  0  0  0  0  0  0  0  0  0
    0.6351    6.7523    0.7737 H   0  0  0  0  0  0  0  0  0  0  0  0
    1.6375    4.4818    0.7889 H   0  0  0  0  0  0  0  0  0  0  0  0
    1.5642    2.5084   -0.3031 H   0  0  0  0  0  0  0  0  0  0  0  0
  1  2  2  0  0  0  0
  2  3  1  0  0  0  0
  2 17  1  0  0  0  0
  3  4  1  0  0  0  0
  3 30  1  0  0  0  0
  4  5  2  0  0  0  0
  4  9  1  0  0  0  0
  5  6  1  0  0  0  0
  5 31  1  0  0  0  0
  6  7  2  0  0  0  0
  6 32  1  0  0  0  0
  7  8  1  0  0  0  0
  7 33  1  0  0  0  0
  8  9  2  0  0  0  0
  8 34  1  0  0  0  0
  9 10  1  0  0  0  0
 10 11  1  0  0  0  0
 10 35  1  0  0  0  0
 10 36  1  0  0  0  0
 11 12  2  0  0  0  0
 11 16  1  0  0  0  0
 12 13  1  0  0  0  0
 12 37  1  0  0  0  0
 13 14  2  0  0  0  0
 13 38  1  0  0  0  0
 14 15  1  0  0  0  0
 14 39  1  0  0  0  0
 15 16  2  0  0  0  0
 16 40  1  0  0  0  0
 17 18  2  0  0  0  0
 17 29  1  0  0  0  0
 18 19  1  0  0  0  0
 18 41  1  0  0  0  0
 19 20  2  0  0  0  0
 19 42  1  0  0  0  0
 20 21  1  0  0  0  0
 20 43  1  0  0  0  0
 21 22  1  0  0  0  0
 21 29  2  0  0  0  0
 22 23  2  0  0  0  0
 22 28  1  0  0  0  0
 23 24  1  0  0  0  0
 24 25  1  0  0  0  0
 24 44  1  0  0  0  0
 25 26  2  0  0  0  0
 25 27  1  0  0  0  0
 27 28  2  0  0  0  0
 27 45  1  0  0  0  0
 28 46  1  0  0  0  0
 29 47  1  0  0  0  0
M  END
$$$$
