
 OpenBabel01122422463D

 48 51  0  0  0  0  0  0  0  0999 V2000
   -5.1669   -4.4497    2.8324 C   0  0  0  0  0  0  0  0  0  0  0  0
   -4.6875   -3.2837    2.0184 C   0  0  0  0  0  0  0  0  0  0  0  0
   -5.5988   -2.4635    1.3455 C   0  0  0  0  0  0  0  0  0  0  0  0
   -5.1517   -1.3727    0.5966 C   0  0  0  0  0  0  0  0  0  0  0  0
   -3.7918   -1.0521    0.5620 C   0  0  0  0  0  0  0  0  0  0  0  0
   -3.2972    0.0643   -0.0857 O   0  0  0  0  0  0  0  0  0  0  0  0
   -3.9847    1.2618    0.0295 C   0  0  0  0  0  0  0  0  0  0  0  0
   -4.7422    1.5912    1.1639 C   0  0  0  0  0  0  0  0  0  0  0  0
   -5.4900    2.7671    1.2037 C   0  0  0  0  0  0  0  0  0  0  0  0
   -5.4403    3.6583    0.1382 C   0  0  0  0  0  0  0  0  0  0  0  0
   -4.6332    3.3782   -0.9615 C   0  0  0  0  0  0  0  0  0  0  0  0
   -3.8865    2.1880   -1.0253 C   0  0  0  0  0  0  0  0  0  0  0  0
   -3.0580    1.9421   -2.2549 C   0  0  0  0  0  0  0  0  0  0  0  0
   -3.8345    1.2556   -3.2602 N   0  0  0  0  0  0  0  0  0  0  0  0
   -4.3124    1.8563   -4.4046 C   0  0  0  0  0  0  0  0  0  0  0  0
   -4.2312    3.0510   -4.6543 O   0  0  0  0  0  0  0  0  0  0  0  0
   -4.9962    0.9368   -5.3523 C   0  0  0  0  0  0  0  0  0  0  0  0
   -6.1714    1.3532   -5.9930 C   0  0  0  0  0  0  0  0  0  0  0  0
   -6.9241    0.4393   -6.7371 C   0  0  0  0  0  0  0  0  0  0  0  0
   -6.5459   -0.9082   -6.7829 C   0  0  0  0  0  0  0  0  0  0  0  0
   -5.3724   -1.3119   -6.1434 C   0  0  0  0  0  0  0  0  0  0  0  0
   -4.5559   -0.3757   -5.5260 C   0  0  0  0  0  0  0  0  0  0  0  0
   -3.2381   -0.8390   -5.0934 C   0  0  0  0  0  0  0  0  0  0  0  0
   -2.9500   -2.0834   -4.8854 N   0  0  0  0  0  0  0  0  0  0  0  0
   -3.9229   -2.9954   -5.1875 N   0  0  0  0  0  0  0  0  0  0  0  0
   -5.0286   -2.7348   -5.9649 C   0  0  0  0  0  0  0  0  0  0  0  0
   -5.7413   -3.6217   -6.4249 O   0  0  0  0  0  0  0  0  0  0  0  0
   -2.8710   -1.8988    1.1809 C   0  0  0  0  0  0  0  0  0  0  0  0
   -3.3180   -3.0105    1.9051 C   0  0  0  0  0  0  0  0  0  0  0  0
   -6.2588   -4.4496    2.9243 H   0  0  0  0  0  0  0  0  0  0  0  0
   -4.7540   -4.4030    3.8455 H   0  0  0  0  0  0  0  0  0  0  0  0
   -4.8662   -5.3903    2.3614 H   0  0  0  0  0  0  0  0  0  0  0  0
   -6.6673   -2.6583    1.4089 H   0  0  0  0  0  0  0  0  0  0  0  0
   -5.8804   -0.7557    0.0793 H   0  0  0  0  0  0  0  0  0  0  0  0
   -4.7832    0.9245    2.0217 H   0  0  0  0  0  0  0  0  0  0  0  0
   -6.1166    2.9805    2.0657 H   0  0  0  0  0  0  0  0  0  0  0  0
   -6.0233    4.5741    0.1638 H   0  0  0  0  0  0  0  0  0  0  0  0
   -4.5929    4.0884   -1.7873 H   0  0  0  0  0  0  0  0  0  0  0  0
   -2.1897    1.3151   -2.0239 H   0  0  0  0  0  0  0  0  0  0  0  0
   -2.6658    2.8840   -2.6577 H   0  0  0  0  0  0  0  0  0  0  0  0
   -4.1205    0.3163   -3.0114 H   0  0  0  0  0  0  0  0  0  0  0  0
   -6.5172    2.3801   -5.8908 H   0  0  0  0  0  0  0  0  0  0  0  0
   -7.8368    0.7597   -7.2391 H   0  0  0  0  0  0  0  0  0  0  0  0
   -7.1722   -1.6371   -7.2929 H   0  0  0  0  0  0  0  0  0  0  0  0
   -2.4419   -0.0880   -4.9404 H   0  0  0  0  0  0  0  0  0  0  0  0
   -3.6969   -3.9653   -4.9946 H   0  0  0  0  0  0  0  0  0  0  0  0
   -1.8068   -1.6882    1.1199 H   0  0  0  0  0  0  0  0  0  0  0  0
   -2.5901   -3.6569    2.3940 H   0  0  0  0  0  0  0  0  0  0  0  0
  1  2  1  0  0  0  0
  1 30  1  0  0  0  0
  1 31  1  0  0  0  0
  1 32  1  0  0  0  0
  2  3  2  0  0  0  0
  2 29  1  0  0  0  0
  3  4  1  0  0  0  0
  3 33  1  0  0  0  0
  4  5  2  0  0  0  0
  4 34  1  0  0  0  0
  5  6  1  0  0  0  0
  5 28  1  0  0  0  0
  6  7  1  0  0  0  0
  7  8  2  0  0  0  0
  7 12  1  0  0  0  0
  8  9  1  0  0  0  0
  8 35  1  0  0  0  0
  9 10  2  0  0  0  0
  9 36  1  0  0  0  0
 10 11  1  0  0  0  0
 10 37  1  0  0  0  0
 11 12  2  0  0  0  0
 11 38  1  0  0  0  0
 12 13  1  0  0  0  0
 13 14  1  0  0  0  0
 13 39  1  0  0  0  0
 13 40  1  0  0  0  0
 14 15  1  0  0  0  0
 14 41  1  0  0  0  0
 15 16  2  0  0  0  0
 15 17  1  0  0  0  0
 17 18  2  0  0  0  0
 17 22  1  0  0  0  0
 18 19  1  0  0  0  0
 18 42  1  0  0  0  0
 19 20  2  0  0  0  0
 19 43  1  0  0  0  0
 20 21  1  0  0  0  0
 20 44  1  0  0  0  0
 21 22  2  0  0  0  0
 21 26  1  0  0  0  0
 22 23  1  0  0  0  0
 23 24  2  0  0  0  0
 23 45  1  0  0  0  0
 24 25  1  0  0  0  0
 25 26  1  0  0  0  0
 25 46  1  0  0  0  0
 26 27  2  0  0  0  0
 28 29  2  0  0  0  0
 28 47  1  0  0  0  0
 29 48  1  0  0  0  0
M  END
$$$$
