
 OpenBabel01122422503D

 47 50  0  0  0  0  0  0  0  0999 V2000
    1.0951    0.4376   -0.0793 O   0  0  0  0  0  0  0  0  0  0  0  0
    2.2781    0.1123   -0.0301 C   0  0  0  0  0  0  0  0  0  0  0  0
    2.8987   -0.7425   -0.9119 N   0  0  0  0  0  0  0  0  0  0  0  0
    2.1884   -1.2778   -1.9938 C   0  0  0  0  0  0  0  0  0  0  0  0
    1.3667   -0.4739   -2.7766 C   0  0  0  0  0  0  0  0  0  0  0  0
    0.5966   -1.0662   -3.7641 C   0  0  0  0  0  0  0  0  0  0  0  0
    0.6563   -2.4433   -3.9279 C   0  0  0  0  0  0  0  0  0  0  0  0
    1.5207   -3.1794   -3.1186 C   0  0  0  0  0  0  0  0  0  0  0  0
    1.5653   -4.6871   -3.2427 C   0  0  0  0  0  0  0  0  0  0  0  0
    2.4835   -5.1720   -4.3414 C   0  0  0  0  0  0  0  0  0  0  0  0
    3.8583   -4.9231   -4.2621 C   0  0  0  0  0  0  0  0  0  0  0  0
    4.7136   -5.3445   -5.2819 C   0  0  0  0  0  0  0  0  0  0  0  0
    4.2015   -6.0241   -6.3846 C   0  0  0  0  0  0  0  0  0  0  0  0
    2.8357   -6.2934   -6.4640 C   0  0  0  0  0  0  0  0  0  0  0  0
    1.9766   -5.8693   -5.4481 C   0  0  0  0  0  0  0  0  0  0  0  0
    2.3291   -2.6019   -2.1859 N   0  0  0  0  0  0  0  0  0  0  0  0
    3.1156    0.6078    1.0774 C   0  0  0  0  0  0  0  0  0  0  0  0
    2.5461    0.8030    2.2671 C   0  0  0  0  0  0  0  0  0  0  0  0
    3.2828    1.4406    3.3764 C   0  0  0  0  0  0  0  0  0  0  0  0
    2.6708    1.5748    4.4342 O   0  0  0  0  0  0  0  0  0  0  0  0
    4.5821    1.8700    3.0807 N   0  0  0  0  0  0  0  0  0  0  0  0
    5.4417    2.5028    4.0388 C   0  0  0  0  0  0  0  0  0  0  0  0
    5.2632    2.3486    5.4204 C   0  0  0  0  0  0  0  0  0  0  0  0
    6.1481    2.9320    6.3340 C   0  0  0  0  0  0  0  0  0  0  0  0
    7.2174    3.6974    5.8817 C   0  0  0  0  0  0  0  0  0  0  0  0
    7.4018    3.8845    4.5160 C   0  0  0  0  0  0  0  0  0  0  0  0
    6.5274    3.2847    3.6046 C   0  0  0  0  0  0  0  0  0  0  0  0
    5.1748    1.6853    1.8384 N   0  0  0  0  0  0  0  0  0  0  0  0
    4.4876    1.0828    0.9280 C   0  0  0  0  0  0  0  0  0  0  0  0
    3.6341   -1.3463   -0.5705 H   0  0  0  0  0  0  0  0  0  0  0  0
    1.3131    0.5983   -2.6186 H   0  0  0  0  0  0  0  0  0  0  0  0
   -0.0658   -0.4622   -4.3789 H   0  0  0  0  0  0  0  0  0  0  0  0
    0.0280   -2.9324   -4.6649 H   0  0  0  0  0  0  0  0  0  0  0  0
    0.5439   -5.0580   -3.4034 H   0  0  0  0  0  0  0  0  0  0  0  0
    1.8882   -5.1238   -2.2898 H   0  0  0  0  0  0  0  0  0  0  0  0
    4.2708   -4.3901   -3.4076 H   0  0  0  0  0  0  0  0  0  0  0  0
    5.7771   -5.1346   -5.2149 H   0  0  0  0  0  0  0  0  0  0  0  0
    4.8660   -6.3499   -7.1786 H   0  0  0  0  0  0  0  0  0  0  0  0
    2.4357   -6.8263   -7.3187 H   0  0  0  0  0  0  0  0  0  0  0  0
    0.9131   -6.0865   -5.5259 H   0  0  0  0  0  0  0  0  0  0  0  0
    1.5133    0.5440    2.4741 H   0  0  0  0  0  0  0  0  0  0  0  0
    4.4588    1.7406    5.8251 H   0  0  0  0  0  0  0  0  0  0  0  0
    6.0008    2.7742    7.3996 H   0  0  0  0  0  0  0  0  0  0  0  0
    7.9057    4.1454    6.5927 H   0  0  0  0  0  0  0  0  0  0  0  0
    8.2262    4.4935    4.1548 H   0  0  0  0  0  0  0  0  0  0  0  0
    6.6909    3.4580    2.5436 H   0  0  0  0  0  0  0  0  0  0  0  0
    4.9519    0.9279   -0.0591 H   0  0  0  0  0  0  0  0  0  0  0  0
  1  2  2  0  0  0  0
  2  3  1  0  0  0  0
  2 17  1  0  0  0  0
  3  4  1  0  0  0  0
  3 30  1  0  0  0  0
  4  5  2  0  0  0  0
  4 16  1  0  0  0  0
  5  6  1  0  0  0  0
  5 31  1  0  0  0  0
  6  7  2  0  0  0  0
  6 32  1  0  0  0  0
  7  8  1  0  0  0  0
  7 33  1  0  0  0  0
  8  9  1  0  0  0  0
  8 16  2  0  0  0  0
  9 10  1  0  0  0  0
  9 34  1  0  0  0  0
  9 35  1  0  0  0  0
 10 11  2  0  0  0  0
 10 15  1  0  0  0  0
 11 12  1  0  0  0  0
 11 36  1  0  0  0  0
 12 13  2  0  0  0  0
 12 37  1  0  0  0  0
 13 14  1  0  0  0  0
 13 38  1  0  0  0  0
 14 15  2  0  0  0  0
 14 39  1  0  0  0  0
 15 40  1  0  0  0  0
 17 18  2  0  0  0  0
 17 29  1  0  0  0  0
 18 19  1  0  0  0  0
 18 41  1  0  0  0  0
 19 20  2  0  0  0  0
 19 21  1  0  0  0  0
 21 22  1  0  0  0  0
 21 28  1  0  0  0  0
 22 23  2  0  0  0  0
 22 27  1  0  0  0  0
 23 24  1  0  0  0  0
 23 42  1  0  0  0  0
 24 25  2  0  0  0  0
 24 43  1  0  0  0  0
 25 26  1  0  0  0  0
 25 44  1  0  0  0  0
 26 27  2  0  0  0  0
 26 45  1  0  0  0  0
 27 46  1  0  0  0  0
 28 29  2  0  0  0  0
 29 47  1  0  0  0  0
M  END
$$$$
