
 OpenBabel01122422503D

 50 53  0  0  0  0  0  0  0  0999 V2000
    1.0993    0.0109   -0.1098 O   0  0  0  0  0  0  0  0  0  0  0  0
    2.3208    0.0728   -0.0969 C   0  0  0  0  0  0  0  0  0  0  0  0
    3.0663    0.8117    1.0090 C   0  0  0  0  0  0  0  0  0  0  0  0
    3.9212    1.9485    0.4569 C   0  0  0  0  0  0  0  0  0  0  0  0
    4.6565    2.6883    1.5433 C   0  0  0  0  0  0  0  0  0  0  0  0
    4.1388    3.7682    2.1572 C   0  0  0  0  0  0  0  0  0  0  0  0
    4.8851    4.4723    3.1997 C   0  0  0  0  0  0  0  0  0  0  0  0
    4.3403    5.5684    3.8742 C   0  0  0  0  0  0  0  0  0  0  0  0
    5.0842    6.2217    4.8599 C   0  0  0  0  0  0  0  0  0  0  0  0
    6.3724    5.7842    5.1726 C   0  0  0  0  0  0  0  0  0  0  0  0
    6.9215    4.6880    4.5056 C   0  0  0  0  0  0  0  0  0  0  0  0
    6.1746    4.0352    3.5255 C   0  0  0  0  0  0  0  0  0  0  0  0
    6.7062    2.9239    2.8606 N   0  0  0  0  0  0  0  0  0  0  0  0
    6.0263    2.2091    1.9101 C   0  0  0  0  0  0  0  0  0  0  0  0
    6.5213    1.2229    1.3729 O   0  0  0  0  0  0  0  0  0  0  0  0
    3.1180   -0.5218   -1.0352 N   0  0  0  0  0  0  0  0  0  0  0  0
    2.6054   -1.3107   -2.1409 C   0  0  0  0  0  0  0  0  0  0  0  0
    3.1431   -2.7146   -2.0764 C   0  0  0  0  0  0  0  0  0  0  0  0
    2.4420   -3.7332   -1.4149 C   0  0  0  0  0  0  0  0  0  0  0  0
    2.9971   -5.0129   -1.2841 C   0  0  0  0  0  0  0  0  0  0  0  0
    4.2763   -5.2996   -1.7903 C   0  0  0  0  0  0  0  0  0  0  0  0
    4.9085   -6.6141   -1.6055 C   0  0  0  0  0  0  0  0  0  0  0  0
    6.2936   -6.7534   -1.5098 C   0  0  0  0  0  0  0  0  0  0  0  0
    6.8522   -8.0208   -1.4403 C   0  0  0  0  0  0  0  0  0  0  0  0
    6.0153   -9.1216   -1.4423 C   0  0  0  0  0  0  0  0  0  0  0  0
    4.6482   -8.9094   -1.4958 C   0  0  0  0  0  0  0  0  0  0  0  0
    4.0783   -7.6864   -1.5684 N   0  0  0  0  0  0  0  0  0  0  0  0
    4.9379   -4.2740   -2.4787 C   0  0  0  0  0  0  0  0  0  0  0  0
    6.1498   -4.4802   -3.0207 F   0  0  0  0  0  0  0  0  0  0  0  0
    4.3937   -3.0023   -2.6242 C   0  0  0  0  0  0  0  0  0  0  0  0
    3.6799    0.0927    1.5632 H   0  0  0  0  0  0  0  0  0  0  0  0
    2.3213    1.2085    1.7124 H   0  0  0  0  0  0  0  0  0  0  0  0
    3.2856    2.6488   -0.1012 H   0  0  0  0  0  0  0  0  0  0  0  0
    4.6320    1.5613   -0.2830 H   0  0  0  0  0  0  0  0  0  0  0  0
    3.1546    4.1403    1.9005 H   0  0  0  0  0  0  0  0  0  0  0  0
    3.3386    5.9217    3.6428 H   0  0  0  0  0  0  0  0  0  0  0  0
    4.6584    7.0741    5.3844 H   0  0  0  0  0  0  0  0  0  0  0  0
    6.9479    6.2975    5.9391 H   0  0  0  0  0  0  0  0  0  0  0  0
    7.9233    4.3542    4.7593 H   0  0  0  0  0  0  0  0  0  0  0  0
    7.6334    2.5909    3.0891 H   0  0  0  0  0  0  0  0  0  0  0  0
    4.1234   -0.4458   -0.9289 H   0  0  0  0  0  0  0  0  0  0  0  0
    2.9485   -0.8319   -3.0643 H   0  0  0  0  0  0  0  0  0  0  0  0
    1.5104   -1.3113   -2.1617 H   0  0  0  0  0  0  0  0  0  0  0  0
    1.4649   -3.5306   -0.9789 H   0  0  0  0  0  0  0  0  0  0  0  0
    2.4347   -5.7851   -0.7608 H   0  0  0  0  0  0  0  0  0  0  0  0
    6.9436   -5.8865   -1.5210 H   0  0  0  0  0  0  0  0  0  0  0  0
    7.9330   -8.1328   -1.4049 H   0  0  0  0  0  0  0  0  0  0  0  0
    6.4195  -10.1282   -1.4133 H   0  0  0  0  0  0  0  0  0  0  0  0
    3.9526   -9.7427   -1.4978 H   0  0  0  0  0  0  0  0  0  0  0  0
    4.9750   -2.2553   -3.1521 H   0  0  0  0  0  0  0  0  0  0  0  0
  1  2  2  0  0  0  0
  2  3  1  0  0  0  0
  2 16  1  0  0  0  0
  3  4  1  0  0  0  0
  3 31  1  0  0  0  0
  3 32  1  0  0  0  0
  4  5  1  0  0  0  0
  4 33  1  0  0  0  0
  4 34  1  0  0  0  0
  5  6  2  0  0  0  0
  5 14  1  0  0  0  0
  6  7  1  0  0  0  0
  6 35  1  0  0  0  0
  7  8  2  0  0  0  0
  7 12  1  0  0  0  0
  8  9  1  0  0  0  0
  8 36  1  0  0  0  0
  9 10  2  0  0  0  0
  9 37  1  0  0  0  0
 10 11  1  0  0  0  0
 10 38  1  0  0  0  0
 11 12  2  0  0  0  0
 11 39  1  0  0  0  0
 12 13  1  0  0  0  0
 13 14  1  0  0  0  0
 13 40  1  0  0  0  0
 14 15  2  0  0  0  0
 16 17  1  0  0  0  0
 16 41  1  0  0  0  0
 17 18  1  0  0  0  0
 17 42  1  0  0  0  0
 17 43  1  0  0  0  0
 18 19  2  0  0  0  0
 18 30  1  0  0  0  0
 19 20  1  0  0  0  0
 19 44  1  0  0  0  0
 20 21  2  0  0  0  0
 20 45  1  0  0  0  0
 21 22  1  0  0  0  0
 21 28  1  0  0  0  0
 22 23  2  0  0  0  0
 22 27  1  0  0  0  0
 23 24  1  0  0  0  0
 23 46  1  0  0  0  0
 24 25  2  0  0  0  0
 24 47  1  0  0  0  0
 25 26  1  0  0  0  0
 25 48  1  0  0  0  0
 26 27  2  0  0  0  0
 26 49  1  0  0  0  0
 28 29  1  0  0  0  0
 28 30  2  0  0  0  0
 30 50  1  0  0  0  0
M  END
$$$$
