
 OpenBabel01122422503D

 43 46  0  0  0  0  0  0  0  0999 V2000
    5.4805   -4.3589   -0.6313 N   0  0  0  0  0  0  0  0  0  0  0  0
    4.7337   -3.8847   -1.6700 C   0  0  0  0  0  0  0  0  0  0  0  0
    4.1938   -4.6604   -2.4470 O   0  0  0  0  0  0  0  0  0  0  0  0
    4.6384   -2.4135   -1.8297 C   0  0  0  0  0  0  0  0  0  0  0  0
    4.6022   -1.9357   -3.1522 C   0  0  0  0  0  0  0  0  0  0  0  0
    4.7329   -2.7651   -4.1983 F   0  0  0  0  0  0  0  0  0  0  0  0
    4.4579   -0.5806   -3.4384 C   0  0  0  0  0  0  0  0  0  0  0  0
    4.3845    0.3301   -2.3990 C   0  0  0  0  0  0  0  0  0  0  0  0
    4.4639   -0.1214   -1.0799 C   0  0  0  0  0  0  0  0  0  0  0  0
    4.5534   -1.4967   -0.7617 C   0  0  0  0  0  0  0  0  0  0  0  0
    4.5210   -1.9623    0.5559 O   0  0  0  0  0  0  0  0  0  0  0  0
    4.0269   -0.9724    1.4756 C   0  0  0  0  0  0  0  0  0  0  0  0
    3.4579   -1.5377    2.7763 C   0  0  0  0  0  0  0  0  0  0  0  0
    2.1256   -1.5513    2.9030 N   0  0  0  0  0  0  0  0  0  0  0  0
    1.8956   -0.3363    3.5123 C   0  0  0  0  0  0  0  0  0  0  0  0
    0.7569    0.4752    3.5212 C   0  0  0  0  0  0  0  0  0  0  0  0
    0.8431    1.7389    4.1220 C   0  0  0  0  0  0  0  0  0  0  0  0
    2.0231    2.1547    4.7377 C   0  0  0  0  0  0  0  0  0  0  0  0
    2.0692    3.3686    5.3025 F   0  0  0  0  0  0  0  0  0  0  0  0
    3.1596    1.3489    4.7866 C   0  0  0  0  0  0  0  0  0  0  0  0
    3.0594    0.1065    4.1550 C   0  0  0  0  0  0  0  0  0  0  0  0
    3.8755   -1.0066    4.0176 N   0  0  0  0  0  0  0  0  0  0  0  0
    4.5675   -1.6612    5.0811 C   0  0  0  0  0  0  0  0  0  0  0  0
    4.3578   -1.2329    6.4087 C   0  0  0  0  0  0  0  0  0  0  0  0
    4.8762   -1.9613    7.4842 C   0  0  0  0  0  0  0  0  0  0  0  0
    5.6201   -3.1107    7.2451 C   0  0  0  0  0  0  0  0  0  0  0  0
    5.8565   -3.5220    5.9324 C   0  0  0  0  0  0  0  0  0  0  0  0
    5.3254   -2.8114    4.8462 C   0  0  0  0  0  0  0  0  0  0  0  0
    5.5151   -5.3627   -0.5160 H   0  0  0  0  0  0  0  0  0  0  0  0
    5.8244   -3.7611    0.1036 H   0  0  0  0  0  0  0  0  0  0  0  0
    4.4086   -0.2509   -4.4721 H   0  0  0  0  0  0  0  0  0  0  0  0
    4.2601    1.3909   -2.6065 H   0  0  0  0  0  0  0  0  0  0  0  0
    4.4222    0.6526   -0.3179 H   0  0  0  0  0  0  0  0  0  0  0  0
    3.1600   -0.4782    1.0097 H   0  0  0  0  0  0  0  0  0  0  0  0
    4.8031   -0.2304    1.6881 H   0  0  0  0  0  0  0  0  0  0  0  0
   -0.1490    0.1537    3.0158 H   0  0  0  0  0  0  0  0  0  0  0  0
   -0.0099    2.4128    4.1027 H   0  0  0  0  0  0  0  0  0  0  0  0
    4.0649    1.6814    5.2791 H   0  0  0  0  0  0  0  0  0  0  0  0
    3.7355   -0.3835    6.6551 H   0  0  0  0  0  0  0  0  0  0  0  0
    4.6622   -1.6462    8.5034 H   0  0  0  0  0  0  0  0  0  0  0  0
    5.9935   -3.6926    8.0835 H   0  0  0  0  0  0  0  0  0  0  0  0
    6.4355   -4.4264    5.7590 H   0  0  0  0  0  0  0  0  0  0  0  0
    5.5100   -3.1785    3.8418 H   0  0  0  0  0  0  0  0  0  0  0  0
  1  2  1  0  0  0  0
  1 29  1  0  0  0  0
  1 30  1  0  0  0  0
  2  3  2  0  0  0  0
  2  4  1  0  0  0  0
  4  5  2  0  0  0  0
  4 10  1  0  0  0  0
  5  6  1  0  0  0  0
  5  7  1  0  0  0  0
  7  8  2  0  0  0  0
  7 31  1  0  0  0  0
  8  9  1  0  0  0  0
  8 32  1  0  0  0  0
  9 10  2  0  0  0  0
  9 33  1  0  0  0  0
 10 11  1  0  0  0  0
 11 12  1  0  0  0  0
 12 13  1  0  0  0  0
 12 34  1  0  0  0  0
 12 35  1  0  0  0  0
 13 14  2  0  0  0  0
 13 22  1  0  0  0  0
 14 15  1  0  0  0  0
 15 16  2  0  0  0  0
 15 21  1  0  0  0  0
 16 17  1  0  0  0  0
 16 36  1  0  0  0  0
 17 18  2  0  0  0  0
 17 37  1  0  0  0  0
 18 19  1  0  0  0  0
 18 20  1  0  0  0  0
 20 21  2  0  0  0  0
 20 38  1  0  0  0  0
 21 22  1  0  0  0  0
 22 23  1  0  0  0  0
 23 24  2  0  0  0  0
 23 28  1  0  0  0  0
 24 25  1  0  0  0  0
 24 39  1  0  0  0  0
 25 26  2  0  0  0  0
 25 40  1  0  0  0  0
 26 27  1  0  0  0  0
 26 41  1  0  0  0  0
 27 28  2  0  0  0  0
 27 42  1  0  0  0  0
 28 43  1  0  0  0  0
M  END
$$$$
