
 OpenBabel01122422503D

 46 49  0  0  0  0  0  0  0  0999 V2000
    2.5217    1.0798    0.0741 O   0  0  0  0  0  0  0  0  0  0  0  0
    2.1265   -0.0836    0.1014 C   0  0  0  0  0  0  0  0  0  0  0  0
    0.6403   -0.3608   -0.0062 C   0  0  0  0  0  0  0  0  0  0  0  0
   -0.0689   -0.5639    1.3127 C   0  0  0  0  0  0  0  0  0  0  0  0
   -1.2237   -1.3564    1.3454 C   0  0  0  0  0  0  0  0  0  0  0  0
   -1.9204   -1.5589    2.5396 C   0  0  0  0  0  0  0  0  0  0  0  0
   -1.4858   -0.9617    3.7318 C   0  0  0  0  0  0  0  0  0  0  0  0
   -2.1474   -1.1711    4.9478 C   0  0  0  0  0  0  0  0  0  0  0  0
   -1.6658   -0.5436    6.0858 C   0  0  0  0  0  0  0  0  0  0  0  0
   -0.5948    0.2751    6.0970 N   0  0  0  0  0  0  0  0  0  0  0  0
    0.0308    0.4674    4.9108 C   0  0  0  0  0  0  0  0  0  0  0  0
   -0.3543   -0.1253    3.7046 C   0  0  0  0  0  0  0  0  0  0  0  0
    0.3373    0.0778    2.4937 C   0  0  0  0  0  0  0  0  0  0  0  0
    2.9237   -1.2212    0.1947 N   0  0  0  0  0  0  0  0  0  0  0  0
    4.3266   -1.2126    0.3900 C   0  0  0  0  0  0  0  0  0  0  0  0
    4.9866   -0.0978    0.9076 C   0  0  0  0  0  0  0  0  0  0  0  0
    6.3757   -0.0404    1.0497 C   0  0  0  0  0  0  0  0  0  0  0  0
    7.0398    1.1089    1.5434 N   0  0  0  0  0  0  0  0  0  0  0  0
    6.4258    2.2897    1.9553 C   0  0  0  0  0  0  0  0  0  0  0  0
    5.2241    2.5239    1.9517 O   0  0  0  0  0  0  0  0  0  0  0  0
    7.3375    3.3467    2.4672 C   0  0  0  0  0  0  0  0  0  0  0  0
    8.6712    3.0798    2.4255 N   0  0  0  0  0  0  0  0  0  0  0  0
    9.4541    4.0527    2.9222 C   0  0  0  0  0  0  0  0  0  0  0  0
    9.0333    5.2212    3.4464 N   0  0  0  0  0  0  0  0  0  0  0  0
    7.7000    5.4199    3.4599 C   0  0  0  0  0  0  0  0  0  0  0  0
    6.7997    4.5130    2.9749 C   0  0  0  0  0  0  0  0  0  0  0  0
    5.4887    4.7851    3.0278 F   0  0  0  0  0  0  0  0  0  0  0  0
    7.1205   -1.1642    0.6871 C   0  0  0  0  0  0  0  0  0  0  0  0
    6.4727   -2.3149    0.2139 C   0  0  0  0  0  0  0  0  0  0  0  0
    5.0780   -2.3436    0.0745 C   0  0  0  0  0  0  0  0  0  0  0  0
    0.5002   -1.2310   -0.6578 H   0  0  0  0  0  0  0  0  0  0  0  0
    0.1807    0.4949   -0.5178 H   0  0  0  0  0  0  0  0  0  0  0  0
   -1.5963   -1.8212    0.4347 H   0  0  0  0  0  0  0  0  0  0  0  0
   -2.8091   -2.1859    2.5296 H   0  0  0  0  0  0  0  0  0  0  0  0
   -3.0181   -1.8142    5.0157 H   0  0  0  0  0  0  0  0  0  0  0  0
   -2.1463   -0.6895    7.0491 H   0  0  0  0  0  0  0  0  0  0  0  0
    0.8887    1.1340    4.9587 H   0  0  0  0  0  0  0  0  0  0  0  0
    1.2005    0.7447    2.4858 H   0  0  0  0  0  0  0  0  0  0  0  0
    2.4938   -2.1141   -0.0063 H   0  0  0  0  0  0  0  0  0  0  0  0
    4.3826    0.7370    1.2278 H   0  0  0  0  0  0  0  0  0  0  0  0
    8.0528    1.0896    1.6087 H   0  0  0  0  0  0  0  0  0  0  0  0
   10.5246    3.8875    2.9018 H   0  0  0  0  0  0  0  0  0  0  0  0
    7.3600    6.3564    3.8929 H   0  0  0  0  0  0  0  0  0  0  0  0
    8.2042   -1.1683    0.7723 H   0  0  0  0  0  0  0  0  0  0  0  0
    7.0587   -3.1900   -0.0589 H   0  0  0  0  0  0  0  0  0  0  0  0
    4.6048   -3.2415   -0.3123 H   0  0  0  0  0  0  0  0  0  0  0  0
  1  2  2  0  0  0  0
  2  3  1  0  0  0  0
  2 14  1  0  0  0  0
  3  4  1  0  0  0  0
  3 31  1  0  0  0  0
  3 32  1  0  0  0  0
  4  5  2  0  0  0  0
  4 13  1  0  0  0  0
  5  6  1  0  0  0  0
  5 33  1  0  0  0  0
  6  7  2  0  0  0  0
  6 34  1  0  0  0  0
  7  8  1  0  0  0  0
  7 12  1  0  0  0  0
  8  9  2  0  0  0  0
  8 35  1  0  0  0  0
  9 10  1  0  0  0  0
  9 36  1  0  0  0  0
 10 11  2  0  0  0  0
 11 12  1  0  0  0  0
 11 37  1  0  0  0  0
 12 13  2  0  0  0  0
 13 38  1  0  0  0  0
 14 15  1  0  0  0  0
 14 39  1  0  0  0  0
 15 16  2  0  0  0  0
 15 30  1  0  0  0  0
 16 17  1  0  0  0  0
 16 40  1  0  0  0  0
 17 18  1  0  0  0  0
 17 28  2  0  0  0  0
 18 19  1  0  0  0  0
 18 41  1  0  0  0  0
 19 20  2  0  0  0  0
 19 21  1  0  0  0  0
 21 22  2  0  0  0  0
 21 26  1  0  0  0  0
 22 23  1  0  0  0  0
 23 24  2  0  0  0  0
 23 42  1  0  0  0  0
 24 25  1  0  0  0  0
 25 26  2  0  0  0  0
 25 43  1  0  0  0  0
 26 27  1  0  0  0  0
 28 29  1  0  0  0  0
 28 44  1  0  0  0  0
 29 30  2  0  0  0  0
 29 45  1  0  0  0  0
 30 46  1  0  0  0  0
M  END
$$$$
