
 OpenBabel01122422503D

 39 41  0  0  0  0  0  0  0  0999 V2000
    0.9450    0.0591    0.0590 N   0  0  0  0  0  0  0  0  0  0  0  0
    2.2059    0.0591    0.0590 C   0  0  0  0  0  0  0  0  0  0  0  0
    3.7259    0.0591    0.0590 C   0  0  0  0  0  0  0  0  0  0  0  0
    4.4358    1.1815    0.3385 C   0  0  0  0  0  0  0  0  0  0  0  0
    3.8150    2.3823    0.6672 N   0  0  0  0  0  0  0  0  0  0  0  0
    4.3890    3.6399    0.8197 C   0  0  0  0  0  0  0  0  0  0  0  0
    5.5549    3.9502    0.6301 O   0  0  0  0  0  0  0  0  0  0  0  0
    3.4781    4.6932    1.3243 C   0  0  0  0  0  0  0  0  0  0  0  0
    2.1815    4.9426    0.8592 C   0  0  0  0  0  0  0  0  0  0  0  0
    1.5322    4.2605   -0.2990 C   0  0  0  0  0  0  0  0  0  0  0  0
    2.3783    3.5109   -1.0540 F   0  0  0  0  0  0  0  0  0  0  0  0
    0.5702    3.3971    0.1200 F   0  0  0  0  0  0  0  0  0  0  0  0
    0.9413    5.1152   -1.1723 F   0  0  0  0  0  0  0  0  0  0  0  0
    1.4258    5.8936    1.5427 C   0  0  0  0  0  0  0  0  0  0  0  0
    0.1572    6.1315    1.1861 F   0  0  0  0  0  0  0  0  0  0  0  0
    1.9742    6.5847    2.6092 C   0  0  0  0  0  0  0  0  0  0  0  0
    3.2428    6.4047    3.0321 N   0  0  0  0  0  0  0  0  0  0  0  0
    3.9705    5.4696    2.3758 C   0  0  0  0  0  0  0  0  0  0  0  0
    5.8798    1.1030    0.3873 C   0  0  0  0  0  0  0  0  0  0  0  0
    6.5040   -0.0712    0.2893 C   0  0  0  0  0  0  0  0  0  0  0  0
    5.8056   -1.2528    0.1127 N   0  0  0  0  0  0  0  0  0  0  0  0
    6.5044   -2.4853    0.0391 C   0  0  0  0  0  0  0  0  0  0  0  0
    7.6104   -2.6068   -0.8104 C   0  0  0  0  0  0  0  0  0  0  0  0
    8.2466   -3.8377   -0.9526 C   0  0  0  0  0  0  0  0  0  0  0  0
    7.8071   -4.9365   -0.2161 C   0  0  0  0  0  0  0  0  0  0  0  0
    6.7413   -4.8082    0.6727 C   0  0  0  0  0  0  0  0  0  0  0  0
    6.0844   -3.5859    0.7950 C   0  0  0  0  0  0  0  0  0  0  0  0
    4.4085   -1.2610   -0.0467 C   0  0  0  0  0  0  0  0  0  0  0  0
    3.7255   -2.2580   -0.2650 O   0  0  0  0  0  0  0  0  0  0  0  0
    2.8108    2.3250    0.7988 H   0  0  0  0  0  0  0  0  0  0  0  0
    1.3876    7.3126    3.1606 H   0  0  0  0  0  0  0  0  0  0  0  0
    4.9870    5.3455    2.7471 H   0  0  0  0  0  0  0  0  0  0  0  0
    6.4923    1.9793    0.5574 H   0  0  0  0  0  0  0  0  0  0  0  0
    7.5848   -0.1307    0.3980 H   0  0  0  0  0  0  0  0  0  0  0  0
    7.9398   -1.7680   -1.4174 H   0  0  0  0  0  0  0  0  0  0  0  0
    9.0650   -3.9441   -1.6589 H   0  0  0  0  0  0  0  0  0  0  0  0
    8.2909   -5.9007   -0.3427 H   0  0  0  0  0  0  0  0  0  0  0  0
    6.4080   -5.6610    1.2570 H   0  0  0  0  0  0  0  0  0  0  0  0
    5.2533   -3.4971    1.4911 H   0  0  0  0  0  0  0  0  0  0  0  0
  1  2  3  0  0  0  0
  2  3  1  0  0  0  0
  3  4  2  0  0  0  0
  3 28  1  0  0  0  0
  4  5  1  0  0  0  0
  4 19  1  0  0  0  0
  5  6  1  0  0  0  0
  5 30  1  0  0  0  0
  6  7  2  0  0  0  0
  6  8  1  0  0  0  0
  8  9  2  0  0  0  0
  8 18  1  0  0  0  0
  9 10  1  0  0  0  0
  9 14  1  0  0  0  0
 10 11  1  0  0  0  0
 10 12  1  0  0  0  0
 10 13  1  0  0  0  0
 14 15  1  0  0  0  0
 14 16  2  0  0  0  0
 16 17  1  0  0  0  0
 16 31  1  0  0  0  0
 17 18  2  0  0  0  0
 18 32  1  0  0  0  0
 19 20  2  0  0  0  0
 19 33  1  0  0  0  0
 20 21  1  0  0  0  0
 20 34  1  0  0  0  0
 21 22  1  0  0  0  0
 21 28  1  0  0  0  0
 22 23  2  0  0  0  0
 22 27  1  0  0  0  0
 23 24  1  0  0  0  0
 23 35  1  0  0  0  0
 24 25  2  0  0  0  0
 24 36  1  0  0  0  0
 25 26  1  0  0  0  0
 25 37  1  0  0  0  0
 26 27  2  0  0  0  0
 26 38  1  0  0  0  0
 27 39  1  0  0  0  0
 28 29  2  0  0  0  0
M  END
$$$$
