
 OpenBabel01122422503D

 46 49  0  0  0  0  0  0  0  0999 V2000
    1.0360    1.7501   -0.6183 C   0  0  0  0  0  0  0  0  0  0  0  0
    2.4679    1.6140   -0.5605 N   0  0  0  0  0  0  0  0  0  0  0  0
    3.1237    1.4467    0.6380 C   0  0  0  0  0  0  0  0  0  0  0  0
    2.5391    1.4174    1.7148 O   0  0  0  0  0  0  0  0  0  0  0  0
    4.6062    1.2932    0.5903 C   0  0  0  0  0  0  0  0  0  0  0  0
    5.2911    1.1172    1.7953 C   0  0  0  0  0  0  0  0  0  0  0  0
    6.6795    0.9522    1.7979 C   0  0  0  0  0  0  0  0  0  0  0  0
    7.4181    0.9579    0.5999 C   0  0  0  0  0  0  0  0  0  0  0  0
    8.8955    0.7417    0.7085 C   0  0  0  0  0  0  0  0  0  0  0  0
    9.3377    0.5074    1.8303 O   0  0  0  0  0  0  0  0  0  0  0  0
    9.6626    0.8527   -0.4435 N   0  0  0  0  0  0  0  0  0  0  0  0
   11.0634    0.6468   -0.5123 C   0  0  0  0  0  0  0  0  0  0  0  0
   11.7917    0.0240    0.5017 C   0  0  0  0  0  0  0  0  0  0  0  0
   13.1816   -0.1027    0.4184 C   0  0  0  0  0  0  0  0  0  0  0  0
   13.8820    0.3885   -0.6862 C   0  0  0  0  0  0  0  0  0  0  0  0
   15.3355    0.3304   -0.7538 C   0  0  0  0  0  0  0  0  0  0  0  0
   16.1768   -0.1842    0.2129 C   0  0  0  0  0  0  0  0  0  0  0  0
   17.4493    0.0237   -0.2511 N   0  0  0  0  0  0  0  0  0  0  0  0
   18.6699   -0.2892    0.3426 C   0  0  0  0  0  0  0  0  0  0  0  0
   19.8086    0.0266   -0.2983 C   0  0  0  0  0  0  0  0  0  0  0  0
   19.7245    0.6886   -1.5931 C   0  0  0  0  0  0  0  0  0  0  0  0
   18.5377    0.9838   -2.1603 C   0  0  0  0  0  0  0  0  0  0  0  0
   17.3292    0.6497   -1.4859 C   0  0  0  0  0  0  0  0  0  0  0  0
   16.0662    0.8350   -1.8093 N   0  0  0  0  0  0  0  0  0  0  0  0
   13.1466    0.9718   -1.7271 C   0  0  0  0  0  0  0  0  0  0  0  0
   11.7493    1.0916   -1.6470 C   0  0  0  0  0  0  0  0  0  0  0  0
    6.7337    1.1349   -0.6039 C   0  0  0  0  0  0  0  0  0  0  0  0
    5.3439    1.3031   -0.5971 C   0  0  0  0  0  0  0  0  0  0  0  0
    4.7379    1.4692   -1.7834 F   0  0  0  0  0  0  0  0  0  0  0  0
    0.7359    1.8234   -1.6658 H   0  0  0  0  0  0  0  0  0  0  0  0
    0.7393    2.6528   -0.0780 H   0  0  0  0  0  0  0  0  0  0  0  0
    0.5693    0.8771   -0.1545 H   0  0  0  0  0  0  0  0  0  0  0  0
    2.9942    1.6428   -1.4262 H   0  0  0  0  0  0  0  0  0  0  0  0
    4.7523    1.0989    2.7425 H   0  0  0  0  0  0  0  0  0  0  0  0
    7.1846    0.8098    2.7545 H   0  0  0  0  0  0  0  0  0  0  0  0
    9.2400    1.2207   -1.2821 H   0  0  0  0  0  0  0  0  0  0  0  0
   11.3103   -0.3846    1.3839 H   0  0  0  0  0  0  0  0  0  0  0  0
   13.6939   -0.5807    1.2479 H   0  0  0  0  0  0  0  0  0  0  0  0
   15.9983   -0.6485    1.1710 H   0  0  0  0  0  0  0  0  0  0  0  0
   18.6472   -0.7770    1.3087 H   0  0  0  0  0  0  0  0  0  0  0  0
   20.7848   -0.1924    0.1204 H   0  0  0  0  0  0  0  0  0  0  0  0
   20.6545    0.9428   -2.0925 H   0  0  0  0  0  0  0  0  0  0  0  0
   18.4724    1.4791   -3.1217 H   0  0  0  0  0  0  0  0  0  0  0  0
   13.6646    1.3572   -2.6042 H   0  0  0  0  0  0  0  0  0  0  0  0
   11.2253    1.5702   -2.4696 H   0  0  0  0  0  0  0  0  0  0  0  0
    7.2292    1.1351   -1.5671 H   0  0  0  0  0  0  0  0  0  0  0  0
  1  2  1  0  0  0  0
  1 30  1  0  0  0  0
  1 31  1  0  0  0  0
  1 32  1  0  0  0  0
  2  3  1  0  0  0  0
  2 33  1  0  0  0  0
  3  4  2  0  0  0  0
  3  5  1  0  0  0  0
  5  6  2  0  0  0  0
  5 28  1  0  0  0  0
  6  7  1  0  0  0  0
  6 34  1  0  0  0  0
  7  8  2  0  0  0  0
  7 35  1  0  0  0  0
  8  9  1  0  0  0  0
  8 27  1  0  0  0  0
  9 10  2  0  0  0  0
  9 11  1  0  0  0  0
 11 12  1  0  0  0  0
 11 36  1  0  0  0  0
 12 13  2  0  0  0  0
 12 26  1  0  0  0  0
 13 14  1  0  0  0  0
 13 37  1  0  0  0  0
 14 15  2  0  0  0  0
 14 38  1  0  0  0  0
 15 16  1  0  0  0  0
 15 25  1  0  0  0  0
 16 17  2  0  0  0  0
 16 24  1  0  0  0  0
 17 18  1  0  0  0  0
 17 39  1  0  0  0  0
 18 19  1  0  0  0  0
 18 23  1  0  0  0  0
 19 20  2  0  0  0  0
 19 40  1  0  0  0  0
 20 21  1  0  0  0  0
 20 41  1  0  0  0  0
 21 22  2  0  0  0  0
 21 42  1  0  0  0  0
 22 23  1  0  0  0  0
 22 43  1  0  0  0  0
 23 24  2  0  0  0  0
 25 26  2  0  0  0  0
 25 44  1  0  0  0  0
 26 45  1  0  0  0  0
 27 28  2  0  0  0  0
 27 46  1  0  0  0  0
 28 29  1  0  0  0  0
M  END
$$$$
