
 OpenBabel01122422503D

 47 50  0  0  0  0  0  0  0  0999 V2000
    1.1403   -0.7609   -0.3580 C   0  0  0  0  0  0  0  0  0  0  0  0
    2.3452   -0.1239    0.0727 O   0  0  0  0  0  0  0  0  0  0  0  0
    3.1407   -0.8549    0.9274 C   0  0  0  0  0  0  0  0  0  0  0  0
    2.8887   -2.2001    1.2579 C   0  0  0  0  0  0  0  0  0  0  0  0
    3.7297   -2.9342    2.1154 C   0  0  0  0  0  0  0  0  0  0  0  0
    3.4626   -4.3533    2.4066 C   0  0  0  0  0  0  0  0  0  0  0  0
    3.7860   -4.9473    3.6259 C   0  0  0  0  0  0  0  0  0  0  0  0
    3.5703   -6.3120    3.7989 C   0  0  0  0  0  0  0  0  0  0  0  0
    3.0303   -7.0497    2.7545 C   0  0  0  0  0  0  0  0  0  0  0  0
    2.7127   -6.3873    1.5829 C   0  0  0  0  0  0  0  0  0  0  0  0
    2.9083   -5.0661    1.3905 N   0  0  0  0  0  0  0  0  0  0  0  0
    4.8298   -2.2721    2.6557 C   0  0  0  0  0  0  0  0  0  0  0  0
    5.0926   -0.9373    2.3444 C   0  0  0  0  0  0  0  0  0  0  0  0
    4.2758   -0.2155    1.4675 C   0  0  0  0  0  0  0  0  0  0  0  0
    4.5638    1.1341    1.1293 N   0  0  0  0  0  0  0  0  0  0  0  0
    5.7149    1.8329    1.4631 C   0  0  0  0  0  0  0  0  0  0  0  0
    6.6850    1.3820    2.0696 O   0  0  0  0  0  0  0  0  0  0  0  0
    5.8204    3.2638    1.0534 C   0  0  0  0  0  0  0  0  0  0  0  0
    6.7223    4.0714    1.7863 C   0  0  0  0  0  0  0  0  0  0  0  0
    6.9737    5.4006    1.4192 C   0  0  0  0  0  0  0  0  0  0  0  0
    7.8865    6.2042    2.1719 N   0  0  0  0  0  0  0  0  0  0  0  0
    8.6226    5.8370    3.2803 C   0  0  0  0  0  0  0  0  0  0  0  0
    9.3500    6.9454    3.6490 C   0  0  0  0  0  0  0  0  0  0  0  0
    9.0897    7.9921    2.8149 N   0  0  0  0  0  0  0  0  0  0  0  0
    8.2167    7.5261    1.9483 C   0  0  0  0  0  0  0  0  0  0  0  0
    6.3208    5.9163    0.2952 C   0  0  0  0  0  0  0  0  0  0  0  0
    5.4129    5.1279   -0.4252 C   0  0  0  0  0  0  0  0  0  0  0  0
    5.1554    3.8121   -0.0431 C   0  0  0  0  0  0  0  0  0  0  0  0
    4.2666    3.0621   -0.7616 O   0  0  0  0  0  0  0  0  0  0  0  0
    0.6063   -0.0783   -1.0250 H   0  0  0  0  0  0  0  0  0  0  0  0
    0.4851   -0.9730    0.4951 H   0  0  0  0  0  0  0  0  0  0  0  0
    1.3464   -1.6737   -0.9298 H   0  0  0  0  0  0  0  0  0  0  0  0
    2.0348   -2.7293    0.8435 H   0  0  0  0  0  0  0  0  0  0  0  0
    4.2016   -4.3644    4.4413 H   0  0  0  0  0  0  0  0  0  0  0  0
    3.8289   -6.7911    4.7384 H   0  0  0  0  0  0  0  0  0  0  0  0
    2.8590   -8.1148    2.8512 H   0  0  0  0  0  0  0  0  0  0  0  0
    2.2851   -6.9169    0.7369 H   0  0  0  0  0  0  0  0  0  0  0  0
    5.5345   -2.7856    3.3047 H   0  0  0  0  0  0  0  0  0  0  0  0
    5.9654   -0.4973    2.8135 H   0  0  0  0  0  0  0  0  0  0  0  0
    3.8932    1.5907    0.5141 H   0  0  0  0  0  0  0  0  0  0  0  0
    7.2243    3.6187    2.6396 H   0  0  0  0  0  0  0  0  0  0  0  0
    8.5893    4.8509    3.7172 H   0  0  0  0  0  0  0  0  0  0  0  0
   10.0457    7.0408    4.4721 H   0  0  0  0  0  0  0  0  0  0  0  0
    7.7962    8.1140    1.1462 H   0  0  0  0  0  0  0  0  0  0  0  0
    6.4948    6.9266   -0.0618 H   0  0  0  0  0  0  0  0  0  0  0  0
    4.9234    5.5628   -1.2939 H   0  0  0  0  0  0  0  0  0  0  0  0
    4.0236    3.5414   -1.5743 H   0  0  0  0  0  0  0  0  0  0  0  0
  1  2  1  0  0  0  0
  1 30  1  0  0  0  0
  1 31  1  0  0  0  0
  1 32  1  0  0  0  0
  2  3  1  0  0  0  0
  3  4  2  0  0  0  0
  3 14  1  0  0  0  0
  4  5  1  0  0  0  0
  4 33  1  0  0  0  0
  5  6  1  0  0  0  0
  5 12  2  0  0  0  0
  6  7  2  0  0  0  0
  6 11  1  0  0  0  0
  7  8  1  0  0  0  0
  7 34  1  0  0  0  0
  8  9  2  0  0  0  0
  8 35  1  0  0  0  0
  9 10  1  0  0  0  0
  9 36  1  0  0  0  0
 10 11  2  0  0  0  0
 10 37  1  0  0  0  0
 12 13  1  0  0  0  0
 12 38  1  0  0  0  0
 13 14  2  0  0  0  0
 13 39  1  0  0  0  0
 14 15  1  0  0  0  0
 15 16  1  0  0  0  0
 15 40  1  0  0  0  0
 16 17  2  0  0  0  0
 16 18  1  0  0  0  0
 18 19  2  0  0  0  0
 18 28  1  0  0  0  0
 19 20  1  0  0  0  0
 19 41  1  0  0  0  0
 20 21  1  0  0  0  0
 20 26  2  0  0  0  0
 21 22  1  0  0  0  0
 21 25  1  0  0  0  0
 22 23  2  0  0  0  0
 22 42  1  0  0  0  0
 23 24  1  0  0  0  0
 23 43  1  0  0  0  0
 24 25  2  0  0  0  0
 25 44  1  0  0  0  0
 26 27  1  0  0  0  0
 26 45  1  0  0  0  0
 27 28  2  0  0  0  0
 27 46  1  0  0  0  0
 28 29  1  0  0  0  0
 29 47  1  0  0  0  0
M  END
$$$$
