
 OpenBabel01122422503D

 42 45  0  0  0  0  0  0  0  0999 V2000
    2.4812    1.8070   -0.2171 O   0  0  0  0  0  0  0  0  0  0  0  0
    3.3509    0.9652   -0.4002 C   0  0  0  0  0  0  0  0  0  0  0  0
    3.4198    0.0921   -1.4682 N   0  0  0  0  0  0  0  0  0  0  0  0
    2.5066   -0.0917   -2.4897 C   0  0  0  0  0  0  0  0  0  0  0  0
    1.3230    0.5368   -2.6444 C   0  0  0  0  0  0  0  0  0  0  0  0
    0.4223    0.2457   -3.6907 N   0  0  0  0  0  0  0  0  0  0  0  0
   -0.8543    0.9405   -3.8235 C   0  0  0  0  0  0  0  0  0  0  0  0
   -1.9346    0.3781   -4.5293 C   0  0  0  0  0  0  0  0  0  0  0  0
   -3.1417    1.0641   -4.7172 C   0  0  0  0  0  0  0  0  0  0  0  0
   -3.3112    2.3317   -4.1818 C   0  0  0  0  0  0  0  0  0  0  0  0
   -2.2754    2.8990   -3.4446 C   0  0  0  0  0  0  0  0  0  0  0  0
   -1.0655    2.2113   -3.2637 C   0  0  0  0  0  0  0  0  0  0  0  0
    0.7737   -0.7267   -4.6573 C   0  0  0  0  0  0  0  0  0  0  0  0
    0.1510   -1.0493   -5.6682 O   0  0  0  0  0  0  0  0  0  0  0  0
    2.0710   -1.4189   -4.4631 C   0  0  0  0  0  0  0  0  0  0  0  0
    2.8774   -1.1028   -3.4494 C   0  0  0  0  0  0  0  0  0  0  0  0
    4.4288    0.8192    0.6125 C   0  0  0  0  0  0  0  0  0  0  0  0
    5.7422    0.4101    0.3714 C   0  0  0  0  0  0  0  0  0  0  0  0
    6.1851    0.2051   -0.9175 O   0  0  0  0  0  0  0  0  0  0  0  0
    6.6542    0.2158    1.4381 C   0  0  0  0  0  0  0  0  0  0  0  0
    7.9633   -0.3133    1.2696 C   0  0  0  0  0  0  0  0  0  0  0  0
    8.8321   -0.4657    2.3534 C   0  0  0  0  0  0  0  0  0  0  0  0
    8.4346   -0.0370    3.6106 C   0  0  0  0  0  0  0  0  0  0  0  0
    7.1512    0.4854    3.7862 C   0  0  0  0  0  0  0  0  0  0  0  0
    6.7365    1.0478    5.3760 Cl  0  0  0  0  0  0  0  0  0  0  0  0
    6.2295    0.5733    2.7354 C   0  0  0  0  0  0  0  0  0  0  0  0
    4.9587    0.9858    2.9597 N   0  0  0  0  0  0  0  0  0  0  0  0
    4.0901    1.0700    1.9270 C   0  0  0  0  0  0  0  0  0  0  0  0
    4.2041   -0.5550   -1.4582 H   0  0  0  0  0  0  0  0  0  0  0  0
    0.9930    1.2700   -1.9205 H   0  0  0  0  0  0  0  0  0  0  0  0
   -1.8839   -0.6248   -4.9431 H   0  0  0  0  0  0  0  0  0  0  0  0
   -3.9425    0.5995   -5.2880 H   0  0  0  0  0  0  0  0  0  0  0  0
   -4.2388    2.8729   -4.3381 H   0  0  0  0  0  0  0  0  0  0  0  0
   -2.4016    3.8931   -3.0198 H   0  0  0  0  0  0  0  0  0  0  0  0
   -0.2854    2.7327   -2.7162 H   0  0  0  0  0  0  0  0  0  0  0  0
    2.3251   -2.1725   -5.1971 H   0  0  0  0  0  0  0  0  0  0  0  0
    3.8263   -1.6204   -3.3516 H   0  0  0  0  0  0  0  0  0  0  0  0
    5.8450    0.9336   -1.4734 H   0  0  0  0  0  0  0  0  0  0  0  0
    8.3007   -0.6301    0.2856 H   0  0  0  0  0  0  0  0  0  0  0  0
    9.8162   -0.9080    2.2147 H   0  0  0  0  0  0  0  0  0  0  0  0
    9.1157   -0.1157    4.4543 H   0  0  0  0  0  0  0  0  0  0  0  0
    3.0739    1.3343    2.2108 H   0  0  0  0  0  0  0  0  0  0  0  0
  1  2  2  0  0  0  0
  2  3  1  0  0  0  0
  2 17  1  0  0  0  0
  3  4  1  0  0  0  0
  3 29  1  0  0  0  0
  4  5  2  0  0  0  0
  4 16  1  0  0  0  0
  5  6  1  0  0  0  0
  5 30  1  0  0  0  0
  6  7  1  0  0  0  0
  6 13  1  0  0  0  0
  7  8  2  0  0  0  0
  7 12  1  0  0  0  0
  8  9  1  0  0  0  0
  8 31  1  0  0  0  0
  9 10  2  0  0  0  0
  9 32  1  0  0  0  0
 10 11  1  0  0  0  0
 10 33  1  0  0  0  0
 11 12  2  0  0  0  0
 11 34  1  0  0  0  0
 12 35  1  0  0  0  0
 13 14  2  0  0  0  0
 13 15  1  0  0  0  0
 15 16  2  0  0  0  0
 15 36  1  0  0  0  0
 16 37  1  0  0  0  0
 17 18  2  0  0  0  0
 17 28  1  0  0  0  0
 18 19  1  0  0  0  0
 18 20  1  0  0  0  0
 19 38  1  0  0  0  0
 20 21  2  0  0  0  0
 20 26  1  0  0  0  0
 21 22  1  0  0  0  0
 21 39  1  0  0  0  0
 22 23  2  0  0  0  0
 22 40  1  0  0  0  0
 23 24  1  0  0  0  0
 23 41  1  0  0  0  0
 24 25  1  0  0  0  0
 24 26  2  0  0  0  0
 26 27  1  0  0  0  0
 27 28  2  0  0  0  0
 28 42  1  0  0  0  0
M  END
$$$$
