
 OpenBabel01122422503D

 49 52  0  0  0  0  0  0  0  0999 V2000
    0.7286    0.7693    0.7433 O   0  0  0  0  0  0  0  0  0  0  0  0
    1.8093    1.2175    1.1044 C   0  0  0  0  0  0  0  0  0  0  0  0
    2.6384    1.9122    0.2578 N   0  0  0  0  0  0  0  0  0  0  0  0
    2.2956    2.0644   -1.1355 C   0  0  0  0  0  0  0  0  0  0  0  0
    3.2908    2.9570   -1.8367 C   0  0  0  0  0  0  0  0  0  0  0  0
    3.0489    4.3464   -1.7935 C   0  0  0  0  0  0  0  0  0  0  0  0
    3.9416    5.2524   -2.3571 C   0  0  0  0  0  0  0  0  0  0  0  0
    5.1034    4.7874   -2.9588 C   0  0  0  0  0  0  0  0  0  0  0  0
    5.3591    3.4155   -3.0195 C   0  0  0  0  0  0  0  0  0  0  0  0
    4.4553    2.4775   -2.4811 C   0  0  0  0  0  0  0  0  0  0  0  0
    4.7756    1.0056   -2.6393 C   0  0  0  0  0  0  0  0  0  0  0  0
    5.6231    0.5131   -1.5727 N   0  0  0  0  0  0  0  0  0  0  0  0
    5.6317   -0.8272   -1.2397 C   0  0  0  0  0  0  0  0  0  0  0  0
    4.9308   -1.6507   -1.8208 O   0  0  0  0  0  0  0  0  0  0  0  0
    6.5872   -1.2935   -0.1798 C   0  0  0  0  0  0  0  0  0  0  0  0
    7.0601   -2.6113   -0.3389 C   0  0  0  0  0  0  0  0  0  0  0  0
    7.9098   -3.1763    0.6007 C   0  0  0  0  0  0  0  0  0  0  0  0
    8.3107   -2.4207    1.6949 C   0  0  0  0  0  0  0  0  0  0  0  0
    9.1238   -3.0060    2.5883 F   0  0  0  0  0  0  0  0  0  0  0  0
    7.8841   -1.1110    1.8975 C   0  0  0  0  0  0  0  0  0  0  0  0
    8.3346   -0.4531    2.9872 N   0  0  0  0  0  0  0  0  0  0  0  0
    7.8996    0.7963    3.2253 C   0  0  0  0  0  0  0  0  0  0  0  0
    6.9997    1.4436    2.4163 C   0  0  0  0  0  0  0  0  0  0  0  0
    6.5289    0.7691    1.2949 C   0  0  0  0  0  0  0  0  0  0  0  0
    6.9834   -0.5313    0.9650 C   0  0  0  0  0  0  0  0  0  0  0  0
    2.3155    1.0279    2.4614 C   0  0  0  0  0  0  0  0  0  0  0  0
    1.7218    0.1980    3.3995 C   0  0  0  0  0  0  0  0  0  0  0  0
    2.4624    0.2156    4.5491 N   0  0  0  0  0  0  0  0  0  0  0  0
    3.5190    1.0719    4.3907 C   0  0  0  0  0  0  0  0  0  0  0  0
    3.4433    1.6055    3.1227 C   0  0  0  0  0  0  0  0  0  0  0  0
    3.5584    2.1836    0.5635 H   0  0  0  0  0  0  0  0  0  0  0  0
    1.2898    2.4996   -1.1955 H   0  0  0  0  0  0  0  0  0  0  0  0
    2.2183    1.0757   -1.5956 H   0  0  0  0  0  0  0  0  0  0  0  0
    2.1475    4.7278   -1.3146 H   0  0  0  0  0  0  0  0  0  0  0  0
    3.7294    6.3179   -2.3258 H   0  0  0  0  0  0  0  0  0  0  0  0
    5.8077    5.4921   -3.3937 H   0  0  0  0  0  0  0  0  0  0  0  0
    6.2687    3.0779   -3.5137 H   0  0  0  0  0  0  0  0  0  0  0  0
    5.3185    0.8454   -3.5796 H   0  0  0  0  0  0  0  0  0  0  0  0
    3.8666    0.4037   -2.7234 H   0  0  0  0  0  0  0  0  0  0  0  0
    6.4269    1.0749   -1.3276 H   0  0  0  0  0  0  0  0  0  0  0  0
    6.7501   -3.2081   -1.1983 H   0  0  0  0  0  0  0  0  0  0  0  0
    8.2614   -4.1989    0.4988 H   0  0  0  0  0  0  0  0  0  0  0  0
    8.2991    1.2656    4.1198 H   0  0  0  0  0  0  0  0  0  0  0  0
    6.6558    2.4420    2.6604 H   0  0  0  0  0  0  0  0  0  0  0  0
    5.7757    1.2720    0.6988 H   0  0  0  0  0  0  0  0  0  0  0  0
    0.8330   -0.4141    3.3219 H   0  0  0  0  0  0  0  0  0  0  0  0
    2.2570   -0.3187    5.3843 H   0  0  0  0  0  0  0  0  0  0  0  0
    4.2266    1.2291    5.1938 H   0  0  0  0  0  0  0  0  0  0  0  0
    4.1315    2.3340    2.7207 H   0  0  0  0  0  0  0  0  0  0  0  0
  1  2  2  0  0  0  0
  2  3  1  0  0  0  0
  2 26  1  0  0  0  0
  3  4  1  0  0  0  0
  3 31  1  0  0  0  0
  4  5  1  0  0  0  0
  4 32  1  0  0  0  0
  4 33  1  0  0  0  0
  5  6  2  0  0  0  0
  5 10  1  0  0  0  0
  6  7  1  0  0  0  0
  6 34  1  0  0  0  0
  7  8  2  0  0  0  0
  7 35  1  0  0  0  0
  8  9  1  0  0  0  0
  8 36  1  0  0  0  0
  9 10  2  0  0  0  0
  9 37  1  0  0  0  0
 10 11  1  0  0  0  0
 11 12  1  0  0  0  0
 11 38  1  0  0  0  0
 11 39  1  0  0  0  0
 12 13  1  0  0  0  0
 12 40  1  0  0  0  0
 13 14  2  0  0  0  0
 13 15  1  0  0  0  0
 15 16  2  0  0  0  0
 15 25  1  0  0  0  0
 16 17  1  0  0  0  0
 16 41  1  0  0  0  0
 17 18  2  0  0  0  0
 17 42  1  0  0  0  0
 18 19  1  0  0  0  0
 18 20  1  0  0  0  0
 20 21  2  0  0  0  0
 20 25  1  0  0  0  0
 21 22  1  0  0  0  0
 22 23  2  0  0  0  0
 22 43  1  0  0  0  0
 23 24  1  0  0  0  0
 23 44  1  0  0  0  0
 24 25  2  0  0  0  0
 24 45  1  0  0  0  0
 26 27  2  0  0  0  0
 26 30  1  0  0  0  0
 27 28  1  0  0  0  0
 27 46  1  0  0  0  0
 28 29  1  0  0  0  0
 28 47  1  0  0  0  0
 29 30  2  0  0  0  0
 29 48  1  0  0  0  0
 30 49  1  0  0  0  0
M  END
$$$$
