
 OpenBabel01122422503D

 49 52  0  0  1  0  0  0  0  0999 V2000
    1.3888   -0.5739    0.9137 O   0  0  0  0  0  0  0  0  0  0  0  0
    2.4743   -0.3116    0.4106 C   0  0  0  0  0  0  0  0  0  0  0  0
    3.0284   -1.0570   -0.6005 N   0  0  0  0  0  0  0  0  0  0  0  0
    2.3550   -2.2261   -1.1607 C   0  0  1  0  0  0  0  0  0  0  0  0
    1.3627   -1.8346   -2.2943 C   0  0  0  0  0  0  0  0  0  0  0  0
    1.9981   -1.1498   -3.4158 N   0  0  0  0  0  0  0  0  0  0  0  0
    2.0018   -1.6852   -4.6903 C   0  0  0  0  0  0  0  0  0  0  0  0
    1.3903   -2.7042   -4.9816 O   0  0  0  0  0  0  0  0  0  0  0  0
    2.8214   -0.9536   -5.7056 C   0  0  0  0  0  0  0  0  0  0  0  0
    2.9352    0.4346   -5.5839 C   0  0  0  0  0  0  0  0  0  0  0  0
    3.7088    1.1066   -6.5010 C   0  0  0  0  0  0  0  0  0  0  0  0
    4.3664    0.4994   -7.5053 N   0  0  0  0  0  0  0  0  0  0  0  0
    4.2613   -0.8324   -7.6337 C   0  0  0  0  0  0  0  0  0  0  0  0
    4.9757   -1.4361   -8.6629 C   0  0  0  0  0  0  0  0  0  0  0  0
    4.9619   -2.8171   -8.8606 C   0  0  0  0  0  0  0  0  0  0  0  0
    4.1959   -3.6033   -8.0261 C   0  0  0  0  0  0  0  0  0  0  0  0
    4.1720   -4.9331   -8.2033 F   0  0  0  0  0  0  0  0  0  0  0  0
    3.4623   -3.0358   -6.9941 C   0  0  0  0  0  0  0  0  0  0  0  0
    3.4870   -1.6342   -6.7631 C   0  0  0  0  0  0  0  0  0  0  0  0
    3.3852   -3.2510   -1.6093 C   0  0  0  0  0  0  0  0  0  0  0  0
    3.3560   -4.5564   -1.0905 C   0  0  0  0  0  0  0  0  0  0  0  0
    4.3212   -5.4912   -1.4745 C   0  0  0  0  0  0  0  0  0  0  0  0
    5.3176   -5.1417   -2.3841 C   0  0  0  0  0  0  0  0  0  0  0  0
    5.3483   -3.8586   -2.9212 C   0  0  0  0  0  0  0  0  0  0  0  0
    4.3944   -2.9225   -2.5301 C   0  0  0  0  0  0  0  0  0  0  0  0
    3.2778    0.8438    0.8364 C   0  0  0  0  0  0  0  0  0  0  0  0
    2.9192    1.6990    1.8671 C   0  0  0  0  0  0  0  0  0  0  0  0
    3.8662    2.6795    1.9882 N   0  0  0  0  0  0  0  0  0  0  0  0
    4.8390    2.4840    1.0450 C   0  0  0  0  0  0  0  0  0  0  0  0
    4.5105    1.3556    0.3261 C   0  0  0  0  0  0  0  0  0  0  0  0
    3.9765   -0.8749   -0.8801 H   0  0  0  0  0  0  0  0  0  0  0  0
    1.7480   -2.6682   -0.3595 H   0  0  0  0  0  0  0  0  0  0  0  0
    0.6148   -1.1326   -1.9101 H   0  0  0  0  0  0  0  0  0  0  0  0
    0.8370   -2.7268   -2.6512 H   0  0  0  0  0  0  0  0  0  0  0  0
    2.5616   -0.3451   -3.1859 H   0  0  0  0  0  0  0  0  0  0  0  0
    2.4255    0.9956   -4.8098 H   0  0  0  0  0  0  0  0  0  0  0  0
    3.8286    2.1856   -6.4498 H   0  0  0  0  0  0  0  0  0  0  0  0
    5.5742   -0.8117   -9.3230 H   0  0  0  0  0  0  0  0  0  0  0  0
    5.5456   -3.2734   -9.6537 H   0  0  0  0  0  0  0  0  0  0  0  0
    2.8792   -3.7096   -6.3731 H   0  0  0  0  0  0  0  0  0  0  0  0
    2.5862   -4.8542   -0.3828 H   0  0  0  0  0  0  0  0  0  0  0  0
    4.2938   -6.4977   -1.0629 H   0  0  0  0  0  0  0  0  0  0  0  0
    6.0695   -5.8702   -2.6774 H   0  0  0  0  0  0  0  0  0  0  0  0
    6.1116   -3.5856   -3.6444 H   0  0  0  0  0  0  0  0  0  0  0  0
    4.4457   -1.9295   -2.9695 H   0  0  0  0  0  0  0  0  0  0  0  0
    2.0576    1.6817    2.5218 H   0  0  0  0  0  0  0  0  0  0  0  0
    3.8459    3.4319    2.6655 H   0  0  0  0  0  0  0  0  0  0  0  0
    5.6793    3.1611    0.9679 H   0  0  0  0  0  0  0  0  0  0  0  0
    5.1032    0.9590   -0.4873 H   0  0  0  0  0  0  0  0  0  0  0  0
  1  2  2  0  0  0  0
  2  3  1  0  0  0  0
  2 26  1  0  0  0  0
  3  4  1  0  0  0  0
  3 31  1  0  0  0  0
  4  5  1  0  0  0  0
  4 20  1  0  0  0  0
  4 32  1  1  0  0  0
  5  6  1  0  0  0  0
  5 33  1  0  0  0  0
  5 34  1  0  0  0  0
  6  7  1  0  0  0  0
  6 35  1  0  0  0  0
  7  8  2  0  0  0  0
  7  9  1  0  0  0  0
  9 10  2  0  0  0  0
  9 19  1  0  0  0  0
 10 11  1  0  0  0  0
 10 36  1  0  0  0  0
 11 12  2  0  0  0  0
 11 37  1  0  0  0  0
 12 13  1  0  0  0  0
 13 14  2  0  0  0  0
 13 19  1  0  0  0  0
 14 15  1  0  0  0  0
 14 38  1  0  0  0  0
 15 16  2  0  0  0  0
 15 39  1  0  0  0  0
 16 17  1  0  0  0  0
 16 18  1  0  0  0  0
 18 19  2  0  0  0  0
 18 40  1  0  0  0  0
 20 21  2  0  0  0  0
 20 25  1  0  0  0  0
 21 22  1  0  0  0  0
 21 41  1  0  0  0  0
 22 23  2  0  0  0  0
 22 42  1  0  0  0  0
 23 24  1  0  0  0  0
 23 43  1  0  0  0  0
 24 25  2  0  0  0  0
 24 44  1  0  0  0  0
 25 45  1  0  0  0  0
 26 27  2  0  0  0  0
 26 30  1  0  0  0  0
 27 28  1  0  0  0  0
 27 46  1  0  0  0  0
 28 29  1  0  0  0  0
 28 47  1  0  0  0  0
 29 30  2  0  0  0  0
 29 48  1  0  0  0  0
 30 49  1  0  0  0  0
M  END
$$$$
