
 OpenBabel01122422503D

 49 52  0  0  0  0  0  0  0  0999 V2000
    2.5557    0.2888    0.0678 C   0  0  0  0  0  0  0  0  0  0  0  0
    1.0567    0.1555    0.1086 C   0  0  0  0  0  0  0  0  0  0  0  0
    0.2999    1.3461    0.1365 C   0  0  0  0  0  0  0  0  0  0  0  0
   -1.0958    1.3227    0.1189 C   0  0  0  0  0  0  0  0  0  0  0  0
   -1.7663    0.1061    0.0652 C   0  0  0  0  0  0  0  0  0  0  0  0
   -3.2725    0.0308   -0.0543 C   0  0  0  0  0  0  0  0  0  0  0  0
   -3.7564    0.1491   -1.4828 C   0  0  0  0  0  0  0  0  0  0  0  0
   -3.4544   -0.8365   -2.4249 C   0  0  0  0  0  0  0  0  0  0  0  0
   -3.8345   -0.6443   -3.7496 C   0  0  0  0  0  0  0  0  0  0  0  0
   -4.5251    0.5090   -4.0961 C   0  0  0  0  0  0  0  0  0  0  0  0
   -4.8194    1.4195   -3.0957 C   0  0  0  0  0  0  0  0  0  0  0  0
   -4.4512    1.2689   -1.8052 N   0  0  0  0  0  0  0  0  0  0  0  0
   -1.0158   -1.0761    0.0515 C   0  0  0  0  0  0  0  0  0  0  0  0
    0.3856   -1.0853    0.0809 C   0  0  0  0  0  0  0  0  0  0  0  0
    1.1097   -2.3096    0.0744 N   0  0  0  0  0  0  0  0  0  0  0  0
    0.5657   -3.5856    0.1083 C   0  0  0  0  0  0  0  0  0  0  0  0
   -0.6330   -3.8622    0.1380 O   0  0  0  0  0  0  0  0  0  0  0  0
    1.4867   -4.7519    0.1123 C   0  0  0  0  0  0  0  0  0  0  0  0
    0.9121   -6.0292    0.2102 C   0  0  0  0  0  0  0  0  0  0  0  0
    1.7127   -7.1597    0.1453 C   0  0  0  0  0  0  0  0  0  0  0  0
    1.1850   -8.5384    0.1729 C   0  0  0  0  0  0  0  0  0  0  0  0
   -0.1093   -8.8567   -0.2691 C   0  0  0  0  0  0  0  0  0  0  0  0
   -0.5426  -10.1749   -0.2233 C   0  0  0  0  0  0  0  0  0  0  0  0
    0.2123  -11.1957    0.2257 N   0  0  0  0  0  0  0  0  0  0  0  0
    1.4562  -10.8871    0.6411 C   0  0  0  0  0  0  0  0  0  0  0  0
    1.9758   -9.6012    0.6325 C   0  0  0  0  0  0  0  0  0  0  0  0
    3.0542   -7.0197    0.0326 N   0  0  0  0  0  0  0  0  0  0  0  0
    3.6317   -5.7736   -0.0410 N   0  0  0  0  0  0  0  0  0  0  0  0
    2.8505   -4.6803   -0.0088 C   0  0  0  0  0  0  0  0  0  0  0  0
    3.5336   -3.5090   -0.1189 O   0  0  0  0  0  0  0  0  0  0  0  0
    2.8651    1.3295    0.2291 H   0  0  0  0  0  0  0  0  0  0  0  0
    2.9375   -0.0163   -0.9111 H   0  0  0  0  0  0  0  0  0  0  0  0
    3.0268   -0.3060    0.8547 H   0  0  0  0  0  0  0  0  0  0  0  0
    0.7968    2.3138    0.1604 H   0  0  0  0  0  0  0  0  0  0  0  0
   -1.6536    2.2568    0.1258 H   0  0  0  0  0  0  0  0  0  0  0  0
   -3.7194    0.8239    0.5580 H   0  0  0  0  0  0  0  0  0  0  0  0
   -3.6411   -0.9113    0.3735 H   0  0  0  0  0  0  0  0  0  0  0  0
   -2.9065   -1.7308   -2.1446 H   0  0  0  0  0  0  0  0  0  0  0  0
   -3.5809   -1.3830   -4.5042 H   0  0  0  0  0  0  0  0  0  0  0  0
   -4.8243    0.6961   -5.1205 H   0  0  0  0  0  0  0  0  0  0  0  0
   -5.3703    2.3297   -3.3129 H   0  0  0  0  0  0  0  0  0  0  0  0
   -1.5818   -1.9972   -0.0100 H   0  0  0  0  0  0  0  0  0  0  0  0
    2.1245   -2.2391    0.0662 H   0  0  0  0  0  0  0  0  0  0  0  0
   -0.1629   -6.1285    0.3337 H   0  0  0  0  0  0  0  0  0  0  0  0
   -0.7849   -8.1059   -0.6666 H   0  0  0  0  0  0  0  0  0  0  0  0
   -1.5378  -10.4487   -0.5626 H   0  0  0  0  0  0  0  0  0  0  0  0
    2.0494  -11.7259    0.9945 H   0  0  0  0  0  0  0  0  0  0  0  0
    2.9896   -9.4358    0.9850 H   0  0  0  0  0  0  0  0  0  0  0  0
    4.4483   -3.8375   -0.2246 H   0  0  0  0  0  0  0  0  0  0  0  0
  1  2  1  0  0  0  0
  1 31  1  0  0  0  0
  1 32  1  0  0  0  0
  1 33  1  0  0  0  0
  2  3  2  0  0  0  0
  2 14  1  0  0  0  0
  3  4  1  0  0  0  0
  3 34  1  0  0  0  0
  4  5  2  0  0  0  0
  4 35  1  0  0  0  0
  5  6  1  0  0  0  0
  5 13  1  0  0  0  0
  6  7  1  0  0  0  0
  6 36  1  0  0  0  0
  6 37  1  0  0  0  0
  7  8  2  0  0  0  0
  7 12  1  0  0  0  0
  8  9  1  0  0  0  0
  8 38  1  0  0  0  0
  9 10  2  0  0  0  0
  9 39  1  0  0  0  0
 10 11  1  0  0  0  0
 10 40  1  0  0  0  0
 11 12  2  0  0  0  0
 11 41  1  0  0  0  0
 13 14  2  0  0  0  0
 13 42  1  0  0  0  0
 14 15  1  0  0  0  0
 15 16  1  0  0  0  0
 15 43  1  0  0  0  0
 16 17  2  0  0  0  0
 16 18  1  0  0  0  0
 18 19  2  0  0  0  0
 18 29  1  0  0  0  0
 19 20  1  0  0  0  0
 19 44  1  0  0  0  0
 20 21  1  0  0  0  0
 20 27  2  0  0  0  0
 21 22  2  0  0  0  0
 21 26  1  0  0  0  0
 22 23  1  0  0  0  0
 22 45  1  0  0  0  0
 23 24  2  0  0  0  0
 23 46  1  0  0  0  0
 24 25  1  0  0  0  0
 25 26  2  0  0  0  0
 25 47  1  0  0  0  0
 26 48  1  0  0  0  0
 27 28  1  0  0  0  0
 28 29  2  0  0  0  0
 29 30  1  0  0  0  0
 30 49  1  0  0  0  0
M  END
$$$$
