
 OpenBabel01122422503D

 51 54  0  0  0  0  0  0  0  0999 V2000
    1.3514    0.3015    0.7030 O   0  0  0  0  0  0  0  0  0  0  0  0
    2.3292   -0.0872    0.0674 C   0  0  0  0  0  0  0  0  0  0  0  0
    2.7911   -1.3722    0.1629 N   0  0  0  0  0  0  0  0  0  0  0  0
    2.1472   -2.3300    1.0301 C   0  0  0  0  0  0  0  0  0  0  0  0
    2.6601   -2.2687    2.4501 C   0  0  0  0  0  0  0  0  0  0  0  0
    2.0893   -1.3813    3.3665 C   0  0  0  0  0  0  0  0  0  0  0  0
    2.5471   -1.3700    4.6813 C   0  0  0  0  0  0  0  0  0  0  0  0
    3.5604   -2.2468    5.0492 C   0  0  0  0  0  0  0  0  0  0  0  0
    4.0558   -2.3375    6.4213 C   0  0  0  0  0  0  0  0  0  0  0  0
    5.0036   -3.2352    6.7194 C   0  0  0  0  0  0  0  0  0  0  0  0
    5.5852   -4.1197    5.6783 C   0  0  0  0  0  0  0  0  0  0  0  0
    6.4543   -4.9322    5.9649 O   0  0  0  0  0  0  0  0  0  0  0  0
    5.0979   -3.9750    4.4099 N   0  0  0  0  0  0  0  0  0  0  0  0
    4.0912   -3.0815    4.0642 C   0  0  0  0  0  0  0  0  0  0  0  0
    3.6760   -3.1063    2.7828 N   0  0  0  0  0  0  0  0  0  0  0  0
    3.0336    0.8458   -0.8605 C   0  0  0  0  0  0  0  0  0  0  0  0
    2.5113    2.1478   -0.9094 C   0  0  0  0  0  0  0  0  0  0  0  0
    3.0006    3.1150   -1.7935 C   0  0  0  0  0  0  0  0  0  0  0  0
    2.3410    4.4720   -1.9179 C   0  0  0  0  0  0  0  0  0  0  0  0
    1.7009    5.0079   -0.6269 C   0  0  0  0  0  0  0  0  0  0  0  0
    1.0497    6.3504   -0.8316 C   0  0  0  0  0  0  0  0  0  0  0  0
   -0.2957    6.4301   -1.2204 C   0  0  0  0  0  0  0  0  0  0  0  0
   -0.8990    7.6709   -1.4187 C   0  0  0  0  0  0  0  0  0  0  0  0
   -0.1637    8.8398   -1.2338 C   0  0  0  0  0  0  0  0  0  0  0  0
    1.1746    8.7692   -0.8485 C   0  0  0  0  0  0  0  0  0  0  0  0
    1.7802    7.5290   -0.6492 C   0  0  0  0  0  0  0  0  0  0  0  0
    4.0540    2.7559   -2.6424 C   0  0  0  0  0  0  0  0  0  0  0  0
    4.6108    1.4712   -2.5892 C   0  0  0  0  0  0  0  0  0  0  0  0
    4.0973    0.5156   -1.7057 C   0  0  0  0  0  0  0  0  0  0  0  0
    4.6365   -0.7438   -1.7013 O   0  0  0  0  0  0  0  0  0  0  0  0
    3.6500   -1.6226   -0.3182 H   0  0  0  0  0  0  0  0  0  0  0  0
    2.3260   -3.3255    0.6114 H   0  0  0  0  0  0  0  0  0  0  0  0
    1.0628   -2.1649    1.0205 H   0  0  0  0  0  0  0  0  0  0  0  0
    1.2896   -0.7107    3.0616 H   0  0  0  0  0  0  0  0  0  0  0  0
    2.0986   -0.6905    5.4008 H   0  0  0  0  0  0  0  0  0  0  0  0
    3.6312   -1.6905    7.1806 H   0  0  0  0  0  0  0  0  0  0  0  0
    5.3888   -3.3618    7.7232 H   0  0  0  0  0  0  0  0  0  0  0  0
    5.4639   -4.5648    3.6775 H   0  0  0  0  0  0  0  0  0  0  0  0
    1.6786    2.3844   -0.2519 H   0  0  0  0  0  0  0  0  0  0  0  0
    1.5764    4.3942   -2.7022 H   0  0  0  0  0  0  0  0  0  0  0  0
    3.0846    5.1981   -2.2712 H   0  0  0  0  0  0  0  0  0  0  0  0
    2.4526    5.0758    0.1705 H   0  0  0  0  0  0  0  0  0  0  0  0
    0.9300    4.3246   -0.2515 H   0  0  0  0  0  0  0  0  0  0  0  0
   -0.8813    5.5243   -1.3635 H   0  0  0  0  0  0  0  0  0  0  0  0
   -1.9431    7.7255   -1.7149 H   0  0  0  0  0  0  0  0  0  0  0  0
   -0.6345    9.8071   -1.3873 H   0  0  0  0  0  0  0  0  0  0  0  0
    1.7462    9.6818   -0.7006 H   0  0  0  0  0  0  0  0  0  0  0  0
    2.8233    7.4872   -0.3441 H   0  0  0  0  0  0  0  0  0  0  0  0
    4.4428    3.4726   -3.3640 H   0  0  0  0  0  0  0  0  0  0  0  0
    5.4314    1.2331   -3.2609 H   0  0  0  0  0  0  0  0  0  0  0  0
    5.2915   -0.8065   -2.4189 H   0  0  0  0  0  0  0  0  0  0  0  0
  1  2  2  0  0  0  0
  2  3  1  0  0  0  0
  2 16  1  0  0  0  0
  3  4  1  0  0  0  0
  3 31  1  0  0  0  0
  4  5  1  0  0  0  0
  4 32  1  0  0  0  0
  4 33  1  0  0  0  0
  5  6  2  0  0  0  0
  5 15  1  0  0  0  0
  6  7  1  0  0  0  0
  6 34  1  0  0  0  0
  7  8  2  0  0  0  0
  7 35  1  0  0  0  0
  8  9  1  0  0  0  0
  8 14  1  0  0  0  0
  9 10  2  0  0  0  0
  9 36  1  0  0  0  0
 10 11  1  0  0  0  0
 10 37  1  0  0  0  0
 11 12  2  0  0  0  0
 11 13  1  0  0  0  0
 13 14  1  0  0  0  0
 13 38  1  0  0  0  0
 14 15  2  0  0  0  0
 16 17  2  0  0  0  0
 16 29  1  0  0  0  0
 17 18  1  0  0  0  0
 17 39  1  0  0  0  0
 18 19  1  0  0  0  0
 18 27  2  0  0  0  0
 19 20  1  0  0  0  0
 19 40  1  0  0  0  0
 19 41  1  0  0  0  0
 20 21  1  0  0  0  0
 20 42  1  0  0  0  0
 20 43  1  0  0  0  0
 21 22  2  0  0  0  0
 21 26  1  0  0  0  0
 22 23  1  0  0  0  0
 22 44  1  0  0  0  0
 23 24  2  0  0  0  0
 23 45  1  0  0  0  0
 24 25  1  0  0  0  0
 24 46  1  0  0  0  0
 25 26  2  0  0  0  0
 25 47  1  0  0  0  0
 26 48  1  0  0  0  0
 27 28  1  0  0  0  0
 27 49  1  0  0  0  0
 28 29  2  0  0  0  0
 28 50  1  0  0  0  0
 29 30  1  0  0  0  0
 30 51  1  0  0  0  0
M  END
$$$$
