
 OpenBabel01122422463D

 43 46  0  0  0  0  0  0  0  0999 V2000
    4.8786    0.0626    2.1023 O   0  0  0  0  0  0  0  0  0  0  0  0
    4.2072   -0.1818    1.1050 C   0  0  0  0  0  0  0  0  0  0  0  0
    2.9796   -0.8131    1.0698 N   0  0  0  0  0  0  0  0  0  0  0  0
    2.2381   -1.2705    2.1467 C   0  0  0  0  0  0  0  0  0  0  0  0
    1.0486   -1.8805    1.9288 C   0  0  0  0  0  0  0  0  0  0  0  0
    0.2769   -2.3916    2.9658 N   0  0  0  0  0  0  0  0  0  0  0  0
   -0.9653   -3.0994    2.6621 C   0  0  0  0  0  0  0  0  0  0  0  0
   -0.7197   -4.5715    2.4289 C   0  0  0  0  0  0  0  0  0  0  0  0
   -0.7725   -5.4919    3.4866 C   0  0  0  0  0  0  0  0  0  0  0  0
   -0.4249   -6.8281    3.2751 C   0  0  0  0  0  0  0  0  0  0  0  0
   -0.0279   -7.2444    2.0081 C   0  0  0  0  0  0  0  0  0  0  0  0
    0.3465   -8.5159    1.8193 F   0  0  0  0  0  0  0  0  0  0  0  0
   -0.0030   -6.3624    0.9413 C   0  0  0  0  0  0  0  0  0  0  0  0
   -0.3496   -5.0320    1.1574 C   0  0  0  0  0  0  0  0  0  0  0  0
   -0.3218   -4.1857    0.1258 F   0  0  0  0  0  0  0  0  0  0  0  0
    0.6678   -2.2906    4.2990 C   0  0  0  0  0  0  0  0  0  0  0  0
    0.0377   -2.7326    5.2495 O   0  0  0  0  0  0  0  0  0  0  0  0
    1.9455   -1.5940    4.5456 C   0  0  0  0  0  0  0  0  0  0  0  0
    2.6692   -1.1168    3.5172 C   0  0  0  0  0  0  0  0  0  0  0  0
    4.7625    0.3145   -0.1738 C   0  0  0  0  0  0  0  0  0  0  0  0
    6.1556    0.3516   -0.3435 C   0  0  0  0  0  0  0  0  0  0  0  0
    6.7393    1.1755   -1.3238 C   0  0  0  0  0  0  0  0  0  0  0  0
    5.9526    2.0806   -2.0454 C   0  0  0  0  0  0  0  0  0  0  0  0
    4.5909    2.0815   -1.8154 C   0  0  0  0  0  0  0  0  0  0  0  0
    4.0138    1.1108   -1.0087 C   0  0  0  0  0  0  0  0  0  0  0  0
    2.5868    1.3343   -1.1082 C   0  0  0  0  0  0  0  0  0  0  0  0
    1.7415    0.4888   -0.8738 O   0  0  0  0  0  0  0  0  0  0  0  0
    2.4114    2.6090   -1.6281 N   0  0  0  0  0  0  0  0  0  0  0  0
    3.6702    3.0904   -2.1563 N   0  0  0  0  0  0  0  0  0  0  0  0
    2.5179   -0.8768    0.1687 H   0  0  0  0  0  0  0  0  0  0  0  0
    0.6576   -2.0169    0.9236 H   0  0  0  0  0  0  0  0  0  0  0  0
   -1.4547   -2.6440    1.7922 H   0  0  0  0  0  0  0  0  0  0  0  0
   -1.6721   -2.9782    3.4940 H   0  0  0  0  0  0  0  0  0  0  0  0
   -1.0582   -5.1650    4.4854 H   0  0  0  0  0  0  0  0  0  0  0  0
   -0.4420   -7.5405    4.0945 H   0  0  0  0  0  0  0  0  0  0  0  0
    0.2992   -6.6945   -0.0447 H   0  0  0  0  0  0  0  0  0  0  0  0
    2.2613   -1.4661    5.5793 H   0  0  0  0  0  0  0  0  0  0  0  0
    3.5894   -0.5979    3.7430 H   0  0  0  0  0  0  0  0  0  0  0  0
    6.7980   -0.1958    0.3459 H   0  0  0  0  0  0  0  0  0  0  0  0
    7.8222    1.1862   -1.4381 H   0  0  0  0  0  0  0  0  0  0  0  0
    6.4168    2.8083   -2.7033 H   0  0  0  0  0  0  0  0  0  0  0  0
    2.0857    3.2330   -0.8824 H   0  0  0  0  0  0  0  0  0  0  0  0
    3.6383    3.2715   -3.1641 H   0  0  0  0  0  0  0  0  0  0  0  0
  1  2  2  0  0  0  0
  2  3  1  0  0  0  0
  2 20  1  0  0  0  0
  3  4  1  0  0  0  0
  3 30  1  0  0  0  0
  4  5  2  0  0  0  0
  4 19  1  0  0  0  0
  5  6  1  0  0  0  0
  5 31  1  0  0  0  0
  6  7  1  0  0  0  0
  6 16  1  0  0  0  0
  7  8  1  0  0  0  0
  7 32  1  0  0  0  0
  7 33  1  0  0  0  0
  8  9  2  0  0  0  0
  8 14  1  0  0  0  0
  9 10  1  0  0  0  0
  9 34  1  0  0  0  0
 10 11  2  0  0  0  0
 10 35  1  0  0  0  0
 11 12  1  0  0  0  0
 11 13  1  0  0  0  0
 13 14  2  0  0  0  0
 13 36  1  0  0  0  0
 14 15  1  0  0  0  0
 16 17  2  0  0  0  0
 16 18  1  0  0  0  0
 18 19  2  0  0  0  0
 18 37  1  0  0  0  0
 19 38  1  0  0  0  0
 20 21  2  0  0  0  0
 20 25  1  0  0  0  0
 21 22  1  0  0  0  0
 21 39  1  0  0  0  0
 22 23  2  0  0  0  0
 22 40  1  0  0  0  0
 23 24  1  0  0  0  0
 23 41  1  0  0  0  0
 24 25  2  0  0  0  0
 24 29  1  0  0  0  0
 25 26  1  0  0  0  0
 26 27  2  0  0  0  0
 26 28  1  0  0  0  0
 28 29  1  0  0  0  0
 28 42  1  0  0  0  0
 29 43  1  0  0  0  0
M  END
$$$$
