
 OpenBabel01122422503D

 46 49  0  0  0  0  0  0  0  0999 V2000
    9.7491    5.5562    5.2093 C   0  0  0  0  0  0  0  0  0  0  0  0
    9.3028    4.4195    4.3483 C   0  0  0  0  0  0  0  0  0  0  0  0
    9.7359    3.1244    4.5489 C   0  0  0  0  0  0  0  0  0  0  0  0
    9.3459    2.0755    3.7918 N   0  0  0  0  0  0  0  0  0  0  0  0
    8.5098    2.2752    2.7721 C   0  0  0  0  0  0  0  0  0  0  0  0
    8.1612    1.2023    2.0625 N   0  0  0  0  0  0  0  0  0  0  0  0
    7.3312    1.3308    1.0099 C   0  0  0  0  0  0  0  0  0  0  0  0
    6.7956    2.5339    0.6069 C   0  0  0  0  0  0  0  0  0  0  0  0
    7.1486    3.6637    1.3397 C   0  0  0  0  0  0  0  0  0  0  0  0
    6.6580    4.9866    0.8565 C   0  0  0  0  0  0  0  0  0  0  0  0
    7.4410    5.9288    0.8024 O   0  0  0  0  0  0  0  0  0  0  0  0
    5.3143    5.0402    0.5370 N   0  0  0  0  0  0  0  0  0  0  0  0
    4.6246    6.2445    0.2238 C   0  0  0  0  0  0  0  0  0  0  0  0
    3.3921    6.4096    0.8845 C   0  0  0  0  0  0  0  0  0  0  0  0
    2.6496    7.5730    0.7194 C   0  0  0  0  0  0  0  0  0  0  0  0
    1.5106    7.7347    1.4038 F   0  0  0  0  0  0  0  0  0  0  0  0
    3.0755    8.5665   -0.1367 C   0  0  0  0  0  0  0  0  0  0  0  0
    4.2719    8.3951   -0.8326 C   0  0  0  0  0  0  0  0  0  0  0  0
    5.0810    7.2540   -0.6599 C   0  0  0  0  0  0  0  0  0  0  0  0
    6.2623    7.1000   -1.4376 N   0  0  0  0  0  0  0  0  0  0  0  0
    6.9187    8.1188   -2.1151 C   0  0  0  0  0  0  0  0  0  0  0  0
    6.6415    9.3190   -2.0421 O   0  0  0  0  0  0  0  0  0  0  0  0
    8.0576    7.7328   -3.0091 C   0  0  0  0  0  0  0  0  0  0  0  0
    8.7447    8.7545   -3.6677 C   0  0  0  0  0  0  0  0  0  0  0  0
    9.7469    8.4208   -4.5698 C   0  0  0  0  0  0  0  0  0  0  0  0
   10.0320    7.0804   -4.7857 C   0  0  0  0  0  0  0  0  0  0  0  0
    9.3045    6.1260   -4.0829 C   0  0  0  0  0  0  0  0  0  0  0  0
    8.3161    6.4113   -3.1946 N   0  0  0  0  0  0  0  0  0  0  0  0
    8.0170    3.5544    2.4593 C   0  0  0  0  0  0  0  0  0  0  0  0
    8.4210    4.6258    3.2920 C   0  0  0  0  0  0  0  0  0  0  0  0
   10.4828    5.2353    5.9558 H   0  0  0  0  0  0  0  0  0  0  0  0
    8.8927    5.9865    5.7383 H   0  0  0  0  0  0  0  0  0  0  0  0
   10.2159    6.3324    4.5940 H   0  0  0  0  0  0  0  0  0  0  0  0
   10.4307    2.8720    5.3451 H   0  0  0  0  0  0  0  0  0  0  0  0
    7.1198    0.4104    0.4764 H   0  0  0  0  0  0  0  0  0  0  0  0
    6.1631    2.5816   -0.2705 H   0  0  0  0  0  0  0  0  0  0  0  0
    4.7438    4.3080    0.9480 H   0  0  0  0  0  0  0  0  0  0  0  0
    3.0177    5.6697    1.5855 H   0  0  0  0  0  0  0  0  0  0  0  0
    2.4858    9.4669   -0.2746 H   0  0  0  0  0  0  0  0  0  0  0  0
    4.5342    9.1787   -1.5361 H   0  0  0  0  0  0  0  0  0  0  0  0
    6.7561    6.2144   -1.3876 H   0  0  0  0  0  0  0  0  0  0  0  0
    8.4910    9.7964   -3.4942 H   0  0  0  0  0  0  0  0  0  0  0  0
   10.2864    9.2015   -5.0999 H   0  0  0  0  0  0  0  0  0  0  0  0
   10.8034    6.7871   -5.4912 H   0  0  0  0  0  0  0  0  0  0  0  0
    9.5058    5.0693   -4.2325 H   0  0  0  0  0  0  0  0  0  0  0  0
    8.0560    5.6358    3.1116 H   0  0  0  0  0  0  0  0  0  0  0  0
  1  2  1  0  0  0  0
  1 31  1  0  0  0  0
  1 32  1  0  0  0  0
  1 33  1  0  0  0  0
  2  3  2  0  0  0  0
  2 30  1  0  0  0  0
  3  4  1  0  0  0  0
  3 34  1  0  0  0  0
  4  5  2  0  0  0  0
  5  6  1  0  0  0  0
  5 29  1  0  0  0  0
  6  7  2  0  0  0  0
  7  8  1  0  0  0  0
  7 35  1  0  0  0  0
  8  9  2  0  0  0  0
  8 36  1  0  0  0  0
  9 10  1  0  0  0  0
  9 29  1  0  0  0  0
 10 11  2  0  0  0  0
 10 12  1  0  0  0  0
 12 13  1  0  0  0  0
 12 37  1  0  0  0  0
 13 14  2  0  0  0  0
 13 19  1  0  0  0  0
 14 15  1  0  0  0  0
 14 38  1  0  0  0  0
 15 16  1  0  0  0  0
 15 17  2  0  0  0  0
 17 18  1  0  0  0  0
 17 39  1  0  0  0  0
 18 19  2  0  0  0  0
 18 40  1  0  0  0  0
 19 20  1  0  0  0  0
 20 21  1  0  0  0  0
 20 41  1  0  0  0  0
 21 22  2  0  0  0  0
 21 23  1  0  0  0  0
 23 24  2  0  0  0  0
 23 28  1  0  0  0  0
 24 25  1  0  0  0  0
 24 42  1  0  0  0  0
 25 26  2  0  0  0  0
 25 43  1  0  0  0  0
 26 27  1  0  0  0  0
 26 44  1  0  0  0  0
 27 28  2  0  0  0  0
 27 45  1  0  0  0  0
 29 30  2  0  0  0  0
 30 46  1  0  0  0  0
M  END
$$$$
