
 OpenBabel01122422503D

 49 52  0  0  0  0  0  0  0  0999 V2000
    6.0859    6.8160   -0.4653 C   0  0  0  0  0  0  0  0  0  0  0  0
    6.6578    5.5025   -0.6060 N   0  0  0  0  0  0  0  0  0  0  0  0
    6.0243    4.5119   -1.3417 C   0  0  0  0  0  0  0  0  0  0  0  0
    4.9684    4.6898   -1.9385 O   0  0  0  0  0  0  0  0  0  0  0  0
    6.7227    3.1967   -1.3887 C   0  0  0  0  0  0  0  0  0  0  0  0
    7.5618    2.7526   -0.3538 C   0  0  0  0  0  0  0  0  0  0  0  0
    8.2007    1.5043   -0.4341 C   0  0  0  0  0  0  0  0  0  0  0  0
    8.0011    0.6699   -1.5388 C   0  0  0  0  0  0  0  0  0  0  0  0
    8.6534   -0.6869   -1.7045 C   0  0  0  0  0  0  0  0  0  0  0  0
    9.5432   -1.2147   -0.5753 C   0  0  0  0  0  0  0  0  0  0  0  0
    9.1148   -1.5324    0.5272 O   0  0  0  0  0  0  0  0  0  0  0  0
   10.8560   -1.3289   -0.9876 N   0  0  0  0  0  0  0  0  0  0  0  0
   11.8839   -1.5554   -0.0769 C   0  0  0  0  0  0  0  0  0  0  0  0
   12.8169   -0.6190   -0.0321 N   0  0  0  0  0  0  0  0  0  0  0  0
   13.8607   -1.1732   -0.7186 C   0  0  0  0  0  0  0  0  0  0  0  0
   14.9446   -0.5565   -1.3422 C   0  0  0  0  0  0  0  0  0  0  0  0
   15.7693   -1.3344   -2.1671 C   0  0  0  0  0  0  0  0  0  0  0  0
   15.5473   -2.7062   -2.3151 C   0  0  0  0  0  0  0  0  0  0  0  0
   14.5194   -3.3542   -1.6162 C   0  0  0  0  0  0  0  0  0  0  0  0
   13.6847   -2.5494   -0.8440 C   0  0  0  0  0  0  0  0  0  0  0  0
   12.5734   -2.7814   -0.0433 N   0  0  0  0  0  0  0  0  0  0  0  0
   12.4084   -3.8679    0.8662 C   0  0  0  0  0  0  0  0  0  0  0  0
   13.5565   -4.5081    1.3769 C   0  0  0  0  0  0  0  0  0  0  0  0
   13.4470   -5.4511    2.3994 C   0  0  0  0  0  0  0  0  0  0  0  0
   12.1887   -5.7899    2.8796 C   0  0  0  0  0  0  0  0  0  0  0  0
   12.0859   -6.6770    3.8773 F   0  0  0  0  0  0  0  0  0  0  0  0
   11.0437   -5.2031    2.3525 C   0  0  0  0  0  0  0  0  0  0  0  0
   11.1454   -4.2236    1.3575 C   0  0  0  0  0  0  0  0  0  0  0  0
    7.1489    1.1218   -2.5674 C   0  0  0  0  0  0  0  0  0  0  0  0
    6.5133    2.3634   -2.4909 C   0  0  0  0  0  0  0  0  0  0  0  0
    6.7964    7.4540    0.0628 H   0  0  0  0  0  0  0  0  0  0  0  0
    5.1581    6.7404    0.1084 H   0  0  0  0  0  0  0  0  0  0  0  0
    5.8709    7.2332   -1.4532 H   0  0  0  0  0  0  0  0  0  0  0  0
    7.6024    5.3558   -0.2723 H   0  0  0  0  0  0  0  0  0  0  0  0
    7.7039    3.3485    0.5426 H   0  0  0  0  0  0  0  0  0  0  0  0
    8.8333    1.1950    0.3976 H   0  0  0  0  0  0  0  0  0  0  0  0
    9.2440   -0.6478   -2.6324 H   0  0  0  0  0  0  0  0  0  0  0  0
    7.8751   -1.4425   -1.8643 H   0  0  0  0  0  0  0  0  0  0  0  0
   11.1259   -0.5540   -1.5870 H   0  0  0  0  0  0  0  0  0  0  0  0
   15.0960    0.5193   -1.2517 H   0  0  0  0  0  0  0  0  0  0  0  0
   16.5689   -0.8531   -2.7270 H   0  0  0  0  0  0  0  0  0  0  0  0
   16.1857   -3.2801   -2.9861 H   0  0  0  0  0  0  0  0  0  0  0  0
   14.3526   -4.4261   -1.7284 H   0  0  0  0  0  0  0  0  0  0  0  0
   14.5573   -4.2243    1.0563 H   0  0  0  0  0  0  0  0  0  0  0  0
   14.3328   -5.8994    2.8395 H   0  0  0  0  0  0  0  0  0  0  0  0
   10.0727   -5.4972    2.7412 H   0  0  0  0  0  0  0  0  0  0  0  0
   10.2368   -3.7668    0.9779 H   0  0  0  0  0  0  0  0  0  0  0  0
    6.9654    0.4974   -3.4413 H   0  0  0  0  0  0  0  0  0  0  0  0
    5.8490    2.6846   -3.2933 H   0  0  0  0  0  0  0  0  0  0  0  0
  1  2  1  0  0  0  0
  1 31  1  0  0  0  0
  1 32  1  0  0  0  0
  1 33  1  0  0  0  0
  2  3  1  0  0  0  0
  2 34  1  0  0  0  0
  3  4  2  0  0  0  0
  3  5  1  0  0  0  0
  5  6  2  0  0  0  0
  5 30  1  0  0  0  0
  6  7  1  0  0  0  0
  6 35  1  0  0  0  0
  7  8  2  0  0  0  0
  7 36  1  0  0  0  0
  8  9  1  0  0  0  0
  8 29  1  0  0  0  0
  9 10  1  0  0  0  0
  9 37  1  0  0  0  0
  9 38  1  0  0  0  0
 10 11  2  0  0  0  0
 10 12  1  0  0  0  0
 12 13  1  0  0  0  0
 12 39  1  0  0  0  0
 13 14  2  0  0  0  0
 13 21  1  0  0  0  0
 14 15  1  0  0  0  0
 15 16  2  0  0  0  0
 15 20  1  0  0  0  0
 16 17  1  0  0  0  0
 16 40  1  0  0  0  0
 17 18  2  0  0  0  0
 17 41  1  0  0  0  0
 18 19  1  0  0  0  0
 18 42  1  0  0  0  0
 19 20  2  0  0  0  0
 19 43  1  0  0  0  0
 20 21  1  0  0  0  0
 21 22  1  0  0  0  0
 22 23  2  0  0  0  0
 22 28  1  0  0  0  0
 23 24  1  0  0  0  0
 23 44  1  0  0  0  0
 24 25  2  0  0  0  0
 24 45  1  0  0  0  0
 25 26  1  0  0  0  0
 25 27  1  0  0  0  0
 27 28  2  0  0  0  0
 27 46  1  0  0  0  0
 28 47  1  0  0  0  0
 29 30  2  0  0  0  0
 29 48  1  0  0  0  0
 30 49  1  0  0  0  0
M  END
$$$$
