
 OpenBabel01122422503D

 40 43  0  0  0  0  0  0  0  0999 V2000
    1.0347    0.1682   -0.1818 N   0  0  0  0  0  0  0  0  0  0  0  0
    2.3909    0.1720   -0.1295 C   0  0  0  0  0  0  0  0  0  0  0  0
    3.2407    1.2455   -0.1631 C   0  0  0  0  0  0  0  0  0  0  0  0
    4.5420    0.7156   -0.0031 C   0  0  0  0  0  0  0  0  0  0  0  0
    5.7800    1.5047   -0.0439 C   0  0  0  0  0  0  0  0  0  0  0  0
    5.7249    2.7284   -0.1325 O   0  0  0  0  0  0  0  0  0  0  0  0
    6.9390    0.7483   -0.0280 N   0  0  0  0  0  0  0  0  0  0  0  0
    8.2556    1.2596   -0.0050 C   0  0  0  0  0  0  0  0  0  0  0  0
    8.5438    2.5928    0.2745 C   0  0  0  0  0  0  0  0  0  0  0  0
    9.8617    3.0489    0.3392 C   0  0  0  0  0  0  0  0  0  0  0  0
   10.1190    4.3908    0.6779 C   0  0  0  0  0  0  0  0  0  0  0  0
   11.4255    4.8451    0.7738 C   0  0  0  0  0  0  0  0  0  0  0  0
   12.4631    3.9654    0.5068 C   0  0  0  0  0  0  0  0  0  0  0  0
   13.7260    4.4051    0.6040 F   0  0  0  0  0  0  0  0  0  0  0  0
   12.2081    2.6391    0.1558 C   0  0  0  0  0  0  0  0  0  0  0  0
   13.2520    1.8340   -0.1006 F   0  0  0  0  0  0  0  0  0  0  0  0
   10.9076    2.1385    0.0805 C   0  0  0  0  0  0  0  0  0  0  0  0
   10.6411    0.8415   -0.2115 N   0  0  0  0  0  0  0  0  0  0  0  0
    9.3459    0.4297   -0.2308 C   0  0  0  0  0  0  0  0  0  0  0  0
    4.5159   -0.6160    0.1962 N   0  0  0  0  0  0  0  0  0  0  0  0
    3.2035   -0.9542    0.0149 N   0  0  0  0  0  0  0  0  0  0  0  0
    2.8315   -2.3208   -0.0644 C   0  0  0  0  0  0  0  0  0  0  0  0
    3.5324   -3.2712    0.6925 C   0  0  0  0  0  0  0  0  0  0  0  0
    3.1861   -4.6199    0.5982 C   0  0  0  0  0  0  0  0  0  0  0  0
    2.1767   -5.0116   -0.2753 C   0  0  0  0  0  0  0  0  0  0  0  0
    1.8692   -6.3096   -0.3882 F   0  0  0  0  0  0  0  0  0  0  0  0
    1.4896   -4.0787   -1.0451 C   0  0  0  0  0  0  0  0  0  0  0  0
    1.8052   -2.7249   -0.9323 C   0  0  0  0  0  0  0  0  0  0  0  0
    0.5289    1.0445   -0.0598 H   0  0  0  0  0  0  0  0  0  0  0  0
    0.5030   -0.6281    0.1674 H   0  0  0  0  0  0  0  0  0  0  0  0
    2.9781    2.2869   -0.2887 H   0  0  0  0  0  0  0  0  0  0  0  0
    6.7966   -0.2585   -0.0820 H   0  0  0  0  0  0  0  0  0  0  0  0
    7.7496    3.3003    0.4872 H   0  0  0  0  0  0  0  0  0  0  0  0
    9.2984    5.0777    0.8798 H   0  0  0  0  0  0  0  0  0  0  0  0
   11.6388    5.8712    1.0605 H   0  0  0  0  0  0  0  0  0  0  0  0
    9.2208   -0.6262   -0.4534 H   0  0  0  0  0  0  0  0  0  0  0  0
    4.3212   -2.9684    1.3785 H   0  0  0  0  0  0  0  0  0  0  0  0
    3.6996   -5.3674    1.1943 H   0  0  0  0  0  0  0  0  0  0  0  0
    0.7261   -4.4129   -1.7408 H   0  0  0  0  0  0  0  0  0  0  0  0
    1.2954   -2.0136   -1.5775 H   0  0  0  0  0  0  0  0  0  0  0  0
  1  2  1  0  0  0  0
  1 29  1  0  0  0  0
  1 30  1  0  0  0  0
  2  3  2  0  0  0  0
  2 21  1  0  0  0  0
  3  4  1  0  0  0  0
  3 31  1  0  0  0  0
  4  5  1  0  0  0  0
  4 20  2  0  0  0  0
  5  6  2  0  0  0  0
  5  7  1  0  0  0  0
  7  8  1  0  0  0  0
  7 32  1  0  0  0  0
  8  9  2  0  0  0  0
  8 19  1  0  0  0  0
  9 10  1  0  0  0  0
  9 33  1  0  0  0  0
 10 11  2  0  0  0  0
 10 17  1  0  0  0  0
 11 12  1  0  0  0  0
 11 34  1  0  0  0  0
 12 13  2  0  0  0  0
 12 35  1  0  0  0  0
 13 14  1  0  0  0  0
 13 15  1  0  0  0  0
 15 16  1  0  0  0  0
 15 17  2  0  0  0  0
 17 18  1  0  0  0  0
 18 19  2  0  0  0  0
 19 36  1  0  0  0  0
 20 21  1  0  0  0  0
 21 22  1  0  0  0  0
 22 23  2  0  0  0  0
 22 28  1  0  0  0  0
 23 24  1  0  0  0  0
 23 37  1  0  0  0  0
 24 25  2  0  0  0  0
 24 38  1  0  0  0  0
 25 26  1  0  0  0  0
 25 27  1  0  0  0  0
 27 28  2  0  0  0  0
 27 39  1  0  0  0  0
 28 40  1  0  0  0  0
M  END
$$$$
