
 OpenBabel01122422503D

 53 56  0  0  0  0  0  0  0  0999 V2000
    5.2838    2.5731   -0.0808 C   0  0  0  0  0  0  0  0  0  0  0  0
    4.4978    1.2904   -0.0768 C   0  0  0  0  0  0  0  0  0  0  0  0
    5.2095    0.0874   -0.0481 C   0  0  0  0  0  0  0  0  0  0  0  0
    4.5091   -1.1108   -0.0472 C   0  0  0  0  0  0  0  0  0  0  0  0
    5.2878   -2.3917   -0.0333 C   0  0  0  0  0  0  0  0  0  0  0  0
    6.5149   -2.3772   -0.0455 O   0  0  0  0  0  0  0  0  0  0  0  0
    4.5486   -3.5515   -0.0099 N   0  0  0  0  0  0  0  0  0  0  0  0
    5.1744   -4.8566   -0.0079 C   0  0  0  0  0  0  0  0  0  0  0  0
    5.4835   -5.3801    1.3775 C   0  0  0  0  0  0  0  0  0  0  0  0
    6.6531   -4.9873    2.0230 C   0  0  0  0  0  0  0  0  0  0  0  0
    6.9986   -5.6059    3.2210 C   0  0  0  0  0  0  0  0  0  0  0  0
    8.1511   -5.3353    3.9235 O   0  0  0  0  0  0  0  0  0  0  0  0
    9.3238   -5.0767    3.2469 C   0  0  0  0  0  0  0  0  0  0  0  0
   10.2334   -4.2387    3.9018 C   0  0  0  0  0  0  0  0  0  0  0  0
   11.4630   -3.9307    3.3134 C   0  0  0  0  0  0  0  0  0  0  0  0
   11.7836   -4.4573    2.0637 C   0  0  0  0  0  0  0  0  0  0  0  0
   10.8831   -5.3042    1.4275 C   0  0  0  0  0  0  0  0  0  0  0  0
   11.1903   -5.8070    0.2244 F   0  0  0  0  0  0  0  0  0  0  0  0
    9.6697   -5.6411    2.0173 C   0  0  0  0  0  0  0  0  0  0  0  0
    6.1233   -6.5179    3.7973 C   0  0  0  0  0  0  0  0  0  0  0  0
    4.9525   -6.8087    3.1209 C   0  0  0  0  0  0  0  0  0  0  0  0
    4.6202   -6.2747    1.9230 N   0  0  0  0  0  0  0  0  0  0  0  0
    3.1518   -1.1863   -0.0708 N   0  0  0  0  0  0  0  0  0  0  0  0
    2.4587   -0.0110   -0.1008 C   0  0  0  0  0  0  0  0  0  0  0  0
    3.0877    1.2344   -0.1050 C   0  0  0  0  0  0  0  0  0  0  0  0
    2.2433    2.4472   -0.1456 C   0  0  0  0  0  0  0  0  0  0  0  0
    2.7617    3.5604   -0.1550 O   0  0  0  0  0  0  0  0  0  0  0  0
    0.8708    2.2630   -0.1754 N   0  0  0  0  0  0  0  0  0  0  0  0
    0.0172    3.4401   -0.2163 C   0  0  0  0  0  0  0  0  0  0  0  0
    0.2353    1.0316   -0.1708 C   0  0  0  0  0  0  0  0  0  0  0  0
   -0.9952    0.9487   -0.1993 O   0  0  0  0  0  0  0  0  0  0  0  0
    1.0475   -0.0850   -0.1330 N   0  0  0  0  0  0  0  0  0  0  0  0
    0.4398   -1.4073   -0.1277 C   0  0  0  0  0  0  0  0  0  0  0  0
    6.3626    2.3826   -0.0511 H   0  0  0  0  0  0  0  0  0  0  0  0
    5.0438    3.1731    0.8024 H   0  0  0  0  0  0  0  0  0  0  0  0
    5.0873    3.1420   -0.9950 H   0  0  0  0  0  0  0  0  0  0  0  0
    6.2965    0.0778   -0.0297 H   0  0  0  0  0  0  0  0  0  0  0  0
    3.5397   -3.4809    0.0586 H   0  0  0  0  0  0  0  0  0  0  0  0
    6.0998   -4.8244   -0.5970 H   0  0  0  0  0  0  0  0  0  0  0  0
    4.4947   -5.5474   -0.5179 H   0  0  0  0  0  0  0  0  0  0  0  0
    7.2965   -4.2396    1.5709 H   0  0  0  0  0  0  0  0  0  0  0  0
    9.9826   -3.8226    4.8748 H   0  0  0  0  0  0  0  0  0  0  0  0
   12.1664   -3.2806    3.8275 H   0  0  0  0  0  0  0  0  0  0  0  0
   12.7284   -4.2211    1.5847 H   0  0  0  0  0  0  0  0  0  0  0  0
    9.0149   -6.3305    1.4966 H   0  0  0  0  0  0  0  0  0  0  0  0
    6.3502   -6.9937    4.7444 H   0  0  0  0  0  0  0  0  0  0  0  0
    4.2320   -7.5107    3.5306 H   0  0  0  0  0  0  0  0  0  0  0  0
    0.5838    4.3749   -0.2163 H   0  0  0  0  0  0  0  0  0  0  0  0
   -0.6451    3.4308    0.6555 H   0  0  0  0  0  0  0  0  0  0  0  0
   -0.5987    3.4025   -1.1209 H   0  0  0  0  0  0  0  0  0  0  0  0
   -0.6526   -1.3543   -0.1510 H   0  0  0  0  0  0  0  0  0  0  0  0
    0.7319   -1.9382    0.7838 H   0  0  0  0  0  0  0  0  0  0  0  0
    0.7687   -1.9628   -1.0117 H   0  0  0  0  0  0  0  0  0  0  0  0
  1  2  1  0  0  0  0
  1 34  1  0  0  0  0
  1 35  1  0  0  0  0
  1 36  1  0  0  0  0
  2  3  2  0  0  0  0
  2 25  1  0  0  0  0
  3  4  1  0  0  0  0
  3 37  1  0  0  0  0
  4  5  1  0  0  0  0
  4 23  2  0  0  0  0
  5  6  2  0  0  0  0
  5  7  1  0  0  0  0
  7  8  1  0  0  0  0
  7 38  1  0  0  0  0
  8  9  1  0  0  0  0
  8 39  1  0  0  0  0
  8 40  1  0  0  0  0
  9 10  2  0  0  0  0
  9 22  1  0  0  0  0
 10 11  1  0  0  0  0
 10 41  1  0  0  0  0
 11 12  1  0  0  0  0
 11 20  2  0  0  0  0
 12 13  1  0  0  0  0
 13 14  2  0  0  0  0
 13 19  1  0  0  0  0
 14 15  1  0  0  0  0
 14 42  1  0  0  0  0
 15 16  2  0  0  0  0
 15 43  1  0  0  0  0
 16 17  1  0  0  0  0
 16 44  1  0  0  0  0
 17 18  1  0  0  0  0
 17 19  2  0  0  0  0
 19 45  1  0  0  0  0
 20 21  1  0  0  0  0
 20 46  1  0  0  0  0
 21 22  2  0  0  0  0
 21 47  1  0  0  0  0
 23 24  1  0  0  0  0
 24 25  2  0  0  0  0
 24 32  1  0  0  0  0
 25 26  1  0  0  0  0
 26 27  2  0  0  0  0
 26 28  1  0  0  0  0
 28 29  1  0  0  0  0
 28 30  1  0  0  0  0
 29 48  1  0  0  0  0
 29 49  1  0  0  0  0
 29 50  1  0  0  0  0
 30 31  2  0  0  0  0
 30 32  1  0  0  0  0
 32 33  1  0  0  0  0
 33 51  1  0  0  0  0
 33 52  1  0  0  0  0
 33 53  1  0  0  0  0
M  END
$$$$
