
 OpenBabel01122422513D

 47 50  0  0  0  0  0  0  0  0999 V2000
    1.1425    0.1713    0.0555 C   0  0  0  0  0  0  0  0  0  0  0  0
    2.6218    0.0506    0.0476 C   0  0  0  0  0  0  0  0  0  0  0  0
    3.3830    1.1468    0.0993 N   0  0  0  0  0  0  0  0  0  0  0  0
    4.6713    0.6946    0.0131 N   0  0  0  0  0  0  0  0  0  0  0  0
    5.7477    1.6318   -0.0501 C   0  0  0  0  0  0  0  0  0  0  0  0
    5.4770    3.0004    0.1173 C   0  0  0  0  0  0  0  0  0  0  0  0
    6.5059    3.9419    0.0306 C   0  0  0  0  0  0  0  0  0  0  0  0
    7.8097    3.5289   -0.2310 C   0  0  0  0  0  0  0  0  0  0  0  0
    8.0896    2.1747   -0.3943 C   0  0  0  0  0  0  0  0  0  0  0  0
    7.0660    1.2274   -0.2989 C   0  0  0  0  0  0  0  0  0  0  0  0
    4.7149   -0.6989   -0.0258 C   0  0  0  0  0  0  0  0  0  0  0  0
    5.8073   -1.4977   -0.0665 N   0  0  0  0  0  0  0  0  0  0  0  0
    5.5290   -2.8262   -0.0892 C   0  0  0  0  0  0  0  0  0  0  0  0
    6.6948   -3.7675   -0.1067 C   0  0  0  0  0  0  0  0  0  0  0  0
    6.5748   -4.9831   -0.1015 O   0  0  0  0  0  0  0  0  0  0  0  0
    7.8629   -3.0765   -0.1158 O   0  0  0  0  0  0  0  0  0  0  0  0
    9.0757   -3.8449   -0.1055 C   0  0  0  0  0  0  0  0  0  0  0  0
    9.9253   -3.5095   -1.3057 C   0  0  0  0  0  0  0  0  0  0  0  0
    9.8986   -2.2449   -1.9090 C   0  0  0  0  0  0  0  0  0  0  0  0
   10.7210   -1.9578   -3.0067 C   0  0  0  0  0  0  0  0  0  0  0  0
   11.5931   -2.9302   -3.5131 C   0  0  0  0  0  0  0  0  0  0  0  0
   12.4893   -2.7004   -4.6829 C   0  0  0  0  0  0  0  0  0  0  0  0
   12.4548   -1.4864   -5.3102 N   0  0  0  0  0  0  0  0  0  0  0  0
   13.2462   -3.5743   -5.0878 O   0  0  0  0  0  0  0  0  0  0  0  0
   11.6409   -4.1859   -2.8964 C   0  0  0  0  0  0  0  0  0  0  0  0
   10.8206   -4.4587   -1.8052 C   0  0  0  0  0  0  0  0  0  0  0  0
   10.9045   -5.6643   -1.2246 F   0  0  0  0  0  0  0  0  0  0  0  0
    4.2458   -3.3681   -0.0850 C   0  0  0  0  0  0  0  0  0  0  0  0
    3.1440   -2.5122   -0.0481 C   0  0  0  0  0  0  0  0  0  0  0  0
    3.3936   -1.1313   -0.0081 C   0  0  0  0  0  0  0  0  0  0  0  0
    0.8230    1.2188    0.0561 H   0  0  0  0  0  0  0  0  0  0  0  0
    0.7222   -0.3125    0.9426 H   0  0  0  0  0  0  0  0  0  0  0  0
    0.7185   -0.3072   -0.8335 H   0  0  0  0  0  0  0  0  0  0  0  0
    4.4668    3.3520    0.3209 H   0  0  0  0  0  0  0  0  0  0  0  0
    6.2852    4.9977    0.1646 H   0  0  0  0  0  0  0  0  0  0  0  0
    8.6076    4.2627   -0.3081 H   0  0  0  0  0  0  0  0  0  0  0  0
    9.1067    1.8512   -0.6004 H   0  0  0  0  0  0  0  0  0  0  0  0
    7.3366    0.1870   -0.4422 H   0  0  0  0  0  0  0  0  0  0  0  0
    8.8821   -4.9221   -0.0624 H   0  0  0  0  0  0  0  0  0  0  0  0
    9.6276   -3.5679    0.7998 H   0  0  0  0  0  0  0  0  0  0  0  0
    9.2325   -1.4720   -1.5295 H   0  0  0  0  0  0  0  0  0  0  0  0
   10.6559   -0.9658   -3.4398 H   0  0  0  0  0  0  0  0  0  0  0  0
   11.8518   -0.7168   -5.0703 H   0  0  0  0  0  0  0  0  0  0  0  0
   13.0667   -1.3739   -6.1087 H   0  0  0  0  0  0  0  0  0  0  0  0
   12.3148   -4.9595   -3.2558 H   0  0  0  0  0  0  0  0  0  0  0  0
    4.0992   -4.4448   -0.1043 H   0  0  0  0  0  0  0  0  0  0  0  0
    2.1325   -2.9065   -0.0394 H   0  0  0  0  0  0  0  0  0  0  0  0
  1  2  1  0  0  0  0
  1 31  1  0  0  0  0
  1 32  1  0  0  0  0
  1 33  1  0  0  0  0
  2  3  2  0  0  0  0
  2 30  1  0  0  0  0
  3  4  1  0  0  0  0
  4  5  1  0  0  0  0
  4 11  1  0  0  0  0
  5  6  2  0  0  0  0
  5 10  1  0  0  0  0
  6  7  1  0  0  0  0
  6 34  1  0  0  0  0
  7  8  2  0  0  0  0
  7 35  1  0  0  0  0
  8  9  1  0  0  0  0
  8 36  1  0  0  0  0
  9 10  2  0  0  0  0
  9 37  1  0  0  0  0
 10 38  1  0  0  0  0
 11 12  2  0  0  0  0
 11 30  1  0  0  0  0
 12 13  1  0  0  0  0
 13 14  1  0  0  0  0
 13 28  2  0  0  0  0
 14 15  2  0  0  0  0
 14 16  1  0  0  0  0
 16 17  1  0  0  0  0
 17 18  1  0  0  0  0
 17 39  1  0  0  0  0
 17 40  1  0  0  0  0
 18 19  2  0  0  0  0
 18 26  1  0  0  0  0
 19 20  1  0  0  0  0
 19 41  1  0  0  0  0
 20 21  2  0  0  0  0
 20 42  1  0  0  0  0
 21 22  1  0  0  0  0
 21 25  1  0  0  0  0
 22 23  1  0  0  0  0
 22 24  2  0  0  0  0
 23 43  1  0  0  0  0
 23 44  1  0  0  0  0
 25 26  2  0  0  0  0
 25 45  1  0  0  0  0
 26 27  1  0  0  0  0
 28 29  1  0  0  0  0
 28 46  1  0  0  0  0
 29 30  2  0  0  0  0
 29 47  1  0  0  0  0
M  END
$$$$
