
 OpenBabel01122422513D

 40 43  0  0  0  0  0  0  0  0999 V2000
   12.3749   -3.9268    3.6236 N   0  0  0  0  0  0  0  0  0  0  0  0
   11.3463   -4.3480    4.4208 C   0  0  0  0  0  0  0  0  0  0  0  0
   11.5618   -4.7835    5.5447 O   0  0  0  0  0  0  0  0  0  0  0  0
    9.9667   -4.2159    3.8827 C   0  0  0  0  0  0  0  0  0  0  0  0
    9.6909   -4.2637    2.5107 C   0  0  0  0  0  0  0  0  0  0  0  0
    8.3680   -4.1811    2.0551 C   0  0  0  0  0  0  0  0  0  0  0  0
    7.3056   -4.0507    2.9659 C   0  0  0  0  0  0  0  0  0  0  0  0
    5.8708   -3.9464    2.5011 C   0  0  0  0  0  0  0  0  0  0  0  0
    5.2966   -5.3171    2.4774 C   0  0  0  0  0  0  0  0  0  0  0  0
    4.6812   -5.8598    3.5375 N   0  0  0  0  0  0  0  0  0  0  0  0
    4.1590   -7.0509    3.0328 O   0  0  0  0  0  0  0  0  0  0  0  0
    4.4883   -7.1014    1.7018 C   0  0  0  0  0  0  0  0  0  0  0  0
    4.0848   -8.1549    0.8317 C   0  0  0  0  0  0  0  0  0  0  0  0
    4.3781   -8.3279   -0.5019 C   0  0  0  0  0  0  0  0  0  0  0  0
    3.7630   -9.5489   -0.8779 C   0  0  0  0  0  0  0  0  0  0  0  0
    3.8343  -10.2230   -2.1686 C   0  0  0  0  0  0  0  0  0  0  0  0
    4.9824  -10.1089   -2.9618 C   0  0  0  0  0  0  0  0  0  0  0  0
    6.0325   -9.3836   -2.5502 F   0  0  0  0  0  0  0  0  0  0  0  0
    5.0869  -10.7496   -4.1951 C   0  0  0  0  0  0  0  0  0  0  0  0
    4.0244  -11.5180   -4.6449 C   0  0  0  0  0  0  0  0  0  0  0  0
    4.1165  -12.1341   -5.8304 F   0  0  0  0  0  0  0  0  0  0  0  0
    2.8697  -11.6520   -3.8889 C   0  0  0  0  0  0  0  0  0  0  0  0
    2.7813  -11.0051   -2.6577 C   0  0  0  0  0  0  0  0  0  0  0  0
    1.6385  -11.1351   -1.9682 F   0  0  0  0  0  0  0  0  0  0  0  0
    3.0961  -10.0632    0.1655 N   0  0  0  0  0  0  0  0  0  0  0  0
    3.2996   -9.1993    1.2234 O   0  0  0  0  0  0  0  0  0  0  0  0
    5.1960   -6.0548    1.3212 N   0  0  0  0  0  0  0  0  0  0  0  0
    7.5966   -3.9969    4.3370 C   0  0  0  0  0  0  0  0  0  0  0  0
    8.9135   -4.0838    4.7925 C   0  0  0  0  0  0  0  0  0  0  0  0
   13.2959   -3.9368    4.0447 H   0  0  0  0  0  0  0  0  0  0  0  0
   12.2305   -3.3304    2.8224 H   0  0  0  0  0  0  0  0  0  0  0  0
   10.4913   -4.3988    1.7881 H   0  0  0  0  0  0  0  0  0  0  0  0
    8.1747   -4.2287    0.9847 H   0  0  0  0  0  0  0  0  0  0  0  0
    5.8134   -3.4832    1.5103 H   0  0  0  0  0  0  0  0  0  0  0  0
    5.3004   -3.3043    3.1834 H   0  0  0  0  0  0  0  0  0  0  0  0
    4.9817   -7.6691   -1.1098 H   0  0  0  0  0  0  0  0  0  0  0  0
    5.9869  -10.6494   -4.7887 H   0  0  0  0  0  0  0  0  0  0  0  0
    2.0402  -12.2508   -4.2515 H   0  0  0  0  0  0  0  0  0  0  0  0
    6.7931   -3.8947    5.0648 H   0  0  0  0  0  0  0  0  0  0  0  0
    9.1149   -4.0510    5.8616 H   0  0  0  0  0  0  0  0  0  0  0  0
  1  2  1  0  0  0  0
  1 30  1  0  0  0  0
  1 31  1  0  0  0  0
  2  3  2  0  0  0  0
  2  4  1  0  0  0  0
  4  5  2  0  0  0  0
  4 29  1  0  0  0  0
  5  6  1  0  0  0  0
  5 32  1  0  0  0  0
  6  7  2  0  0  0  0
  6 33  1  0  0  0  0
  7  8  1  0  0  0  0
  7 28  1  0  0  0  0
  8  9  1  0  0  0  0
  8 34  1  0  0  0  0
  8 35  1  0  0  0  0
  9 10  2  0  0  0  0
  9 27  1  0  0  0  0
 10 11  1  0  0  0  0
 11 12  1  0  0  0  0
 12 13  1  0  0  0  0
 12 27  2  0  0  0  0
 13 14  2  0  0  0  0
 13 26  1  0  0  0  0
 14 15  1  0  0  0  0
 14 36  1  0  0  0  0
 15 16  1  0  0  0  0
 15 25  2  0  0  0  0
 16 17  2  0  0  0  0
 16 23  1  0  0  0  0
 17 18  1  0  0  0  0
 17 19  1  0  0  0  0
 19 20  2  0  0  0  0
 19 37  1  0  0  0  0
 20 21  1  0  0  0  0
 20 22  1  0  0  0  0
 22 23  2  0  0  0  0
 22 38  1  0  0  0  0
 23 24  1  0  0  0  0
 25 26  1  0  0  0  0
 28 29  2  0  0  0  0
 28 39  1  0  0  0  0
 29 40  1  0  0  0  0
M  END
$$$$
