
 OpenBabel01122422463D

 44 47  0  0  0  0  0  0  0  0999 V2000
    1.2475   -0.0813    1.1338 O   0  0  0  0  0  0  0  0  0  0  0  0
    2.3570   -0.0588    0.6160 C   0  0  0  0  0  0  0  0  0  0  0  0
    2.9876    1.0956    0.2061 N   0  0  0  0  0  0  0  0  0  0  0  0
    2.3343    2.3774    0.3279 C   0  0  0  0  0  0  0  0  0  0  0  0
    3.3348    3.4951    0.4395 C   0  0  0  0  0  0  0  0  0  0  0  0
    3.3204    4.5631   -0.4640 C   0  0  0  0  0  0  0  0  0  0  0  0
    4.2116    5.6053   -0.2788 C   0  0  0  0  0  0  0  0  0  0  0  0
    5.1196    5.6488    0.7150 N   0  0  0  0  0  0  0  0  0  0  0  0
    5.1772    4.5745    1.5325 C   0  0  0  0  0  0  0  0  0  0  0  0
    6.1647    4.5084    2.5074 O   0  0  0  0  0  0  0  0  0  0  0  0
    7.3650    5.1303    2.2378 C   0  0  0  0  0  0  0  0  0  0  0  0
    8.0131    5.7289    3.3227 C   0  0  0  0  0  0  0  0  0  0  0  0
    9.2480    6.3608    3.1428 C   0  0  0  0  0  0  0  0  0  0  0  0
    9.8385    6.4013    1.8791 C   0  0  0  0  0  0  0  0  0  0  0  0
    9.2090    5.7837    0.7998 C   0  0  0  0  0  0  0  0  0  0  0  0
    7.9943    5.1288    0.9883 C   0  0  0  0  0  0  0  0  0  0  0  0
    7.4710    4.4678   -0.0559 F   0  0  0  0  0  0  0  0  0  0  0  0
    4.2890    3.5092    1.4654 C   0  0  0  0  0  0  0  0  0  0  0  0
    3.0950   -1.3259    0.3663 C   0  0  0  0  0  0  0  0  0  0  0  0
    2.3688   -2.5024    0.1566 C   0  0  0  0  0  0  0  0  0  0  0  0
    3.0390   -3.7072   -0.0861 C   0  0  0  0  0  0  0  0  0  0  0  0
    4.4414   -3.7608   -0.1086 C   0  0  0  0  0  0  0  0  0  0  0  0
    5.1182   -5.0270   -0.3700 C   0  0  0  0  0  0  0  0  0  0  0  0
    4.6175   -6.2128   -0.6389 N   0  0  0  0  0  0  0  0  0  0  0  0
    5.7442   -6.9699   -0.7902 C   0  0  0  0  0  0  0  0  0  0  0  0
    6.8999   -6.3215   -0.6297 N   0  0  0  0  0  0  0  0  0  0  0  0
    6.4864   -5.0174   -0.3466 O   0  0  0  0  0  0  0  0  0  0  0  0
    5.1591   -2.5746    0.1271 C   0  0  0  0  0  0  0  0  0  0  0  0
    4.4933   -1.3677    0.3663 C   0  0  0  0  0  0  0  0  0  0  0  0
    3.7577    1.0288   -0.4457 H   0  0  0  0  0  0  0  0  0  0  0  0
    1.6702    2.3905    1.1987 H   0  0  0  0  0  0  0  0  0  0  0  0
    1.7096    2.4995   -0.5651 H   0  0  0  0  0  0  0  0  0  0  0  0
    2.6241    4.5907   -1.2958 H   0  0  0  0  0  0  0  0  0  0  0  0
    4.2309    6.4545   -0.9547 H   0  0  0  0  0  0  0  0  0  0  0  0
    7.5585    5.7056    4.3096 H   0  0  0  0  0  0  0  0  0  0  0  0
    9.7497    6.8243    3.9890 H   0  0  0  0  0  0  0  0  0  0  0  0
   10.7918    6.9035    1.7356 H   0  0  0  0  0  0  0  0  0  0  0  0
    9.6570    5.7968   -0.1885 H   0  0  0  0  0  0  0  0  0  0  0  0
    4.3523    2.6992    2.1856 H   0  0  0  0  0  0  0  0  0  0  0  0
    1.2796   -2.4841    0.1772 H   0  0  0  0  0  0  0  0  0  0  0  0
    2.4543   -4.6120   -0.2552 H   0  0  0  0  0  0  0  0  0  0  0  0
    5.7246   -8.0250   -1.0229 H   0  0  0  0  0  0  0  0  0  0  0  0
    6.2497   -2.5774    0.1345 H   0  0  0  0  0  0  0  0  0  0  0  0
    5.0809   -0.4781    0.5776 H   0  0  0  0  0  0  0  0  0  0  0  0
  1  2  2  0  0  0  0
  2  3  1  0  0  0  0
  2 19  1  0  0  0  0
  3  4  1  0  0  0  0
  3 30  1  0  0  0  0
  4  5  1  0  0  0  0
  4 31  1  0  0  0  0
  4 32  1  0  0  0  0
  5  6  2  0  0  0  0
  5 18  1  0  0  0  0
  6  7  1  0  0  0  0
  6 33  1  0  0  0  0
  7  8  2  0  0  0  0
  7 34  1  0  0  0  0
  8  9  1  0  0  0  0
  9 10  1  0  0  0  0
  9 18  2  0  0  0  0
 10 11  1  0  0  0  0
 11 12  2  0  0  0  0
 11 16  1  0  0  0  0
 12 13  1  0  0  0  0
 12 35  1  0  0  0  0
 13 14  2  0  0  0  0
 13 36  1  0  0  0  0
 14 15  1  0  0  0  0
 14 37  1  0  0  0  0
 15 16  2  0  0  0  0
 15 38  1  0  0  0  0
 16 17  1  0  0  0  0
 18 39  1  0  0  0  0
 19 20  2  0  0  0  0
 19 29  1  0  0  0  0
 20 21  1  0  0  0  0
 20 40  1  0  0  0  0
 21 22  2  0  0  0  0
 21 41  1  0  0  0  0
 22 23  1  0  0  0  0
 22 28  1  0  0  0  0
 23 24  2  0  0  0  0
 23 27  1  0  0  0  0
 24 25  1  0  0  0  0
 25 26  2  0  0  0  0
 25 42  1  0  0  0  0
 26 27  1  0  0  0  0
 28 29  2  0  0  0  0
 28 43  1  0  0  0  0
 29 44  1  0  0  0  0
M  END
$$$$
