
 OpenBabel01122422513D

 56 59  0  0  0  0  0  0  0  0999 V2000
    2.6806   -0.8993   -0.9459 O   0  0  0  0  0  0  0  0  0  0  0  0
    2.2470   -0.0712   -0.1558 C   0  0  0  0  0  0  0  0  0  0  0  0
    0.8968    0.1067    0.0302 N   0  0  0  0  0  0  0  0  0  0  0  0
   -0.0848   -0.6409   -0.7465 C   0  0  0  0  0  0  0  0  0  0  0  0
   -0.8177   -1.7075    0.0722 C   0  0  0  0  0  0  0  0  0  0  0  0
   -1.6290   -1.1424    1.1354 N   0  0  0  0  0  0  0  0  0  0  0  0
   -2.9357   -0.6866    0.9532 C   0  0  0  0  0  0  0  0  0  0  0  0
   -3.5827   -0.7073   -0.0831 O   0  0  0  0  0  0  0  0  0  0  0  0
   -3.4181   -0.1304    2.2960 C   0  0  0  0  0  0  0  0  0  0  0  0
   -2.2177   -0.3196    3.1725 C   0  0  0  0  0  0  0  0  0  0  0  0
   -2.0489    0.0083    4.5056 C   0  0  0  0  0  0  0  0  0  0  0  0
   -0.8147   -0.2722    5.0976 C   0  0  0  0  0  0  0  0  0  0  0  0
    0.2206   -0.8678    4.3565 C   0  0  0  0  0  0  0  0  0  0  0  0
    0.0367   -1.1970    3.0117 C   0  0  0  0  0  0  0  0  0  0  0  0
   -1.1906   -0.9172    2.4417 C   0  0  0  0  0  0  0  0  0  0  0  0
    2.9982    0.7705    0.6391 N   0  0  0  0  0  0  0  0  0  0  0  0
    4.4052    0.9137    0.6133 C   0  0  0  0  0  0  0  0  0  0  0  0
    5.2166    0.2935   -0.3414 C   0  0  0  0  0  0  0  0  0  0  0  0
    6.6099    0.4357   -0.3099 C   0  0  0  0  0  0  0  0  0  0  0  0
    7.4896   -0.2627   -1.2926 C   0  0  0  0  0  0  0  0  0  0  0  0
    8.5993    0.1908   -1.5475 O   0  0  0  0  0  0  0  0  0  0  0  0
    6.9954   -1.4245   -1.8423 N   0  0  0  0  0  0  0  0  0  0  0  0
    7.7483   -2.2275   -2.7796 C   0  0  0  0  0  0  0  0  0  0  0  0
    8.0879   -3.5669   -2.1881 C   0  0  0  0  0  0  0  0  0  0  0  0
    9.2857   -3.7590   -1.4856 C   0  0  0  0  0  0  0  0  0  0  0  0
    9.5823   -5.0014   -0.9168 C   0  0  0  0  0  0  0  0  0  0  0  0
    8.6804   -6.0600   -1.0325 C   0  0  0  0  0  0  0  0  0  0  0  0
    7.4830   -5.8773   -1.7216 C   0  0  0  0  0  0  0  0  0  0  0  0
    7.1970   -4.6388   -2.2904 C   0  0  0  0  0  0  0  0  0  0  0  0
    6.0357   -4.4825   -2.9423 F   0  0  0  0  0  0  0  0  0  0  0  0
    7.1942    1.2628    0.6539 C   0  0  0  0  0  0  0  0  0  0  0  0
    6.3933    1.9102    1.5956 C   0  0  0  0  0  0  0  0  0  0  0  0
    5.0058    1.7292    1.5806 C   0  0  0  0  0  0  0  0  0  0  0  0
    0.5612    0.8720    0.5944 H   0  0  0  0  0  0  0  0  0  0  0  0
    0.4071   -1.1281   -1.5951 H   0  0  0  0  0  0  0  0  0  0  0  0
   -0.7905    0.0922   -1.1497 H   0  0  0  0  0  0  0  0  0  0  0  0
   -0.1235   -2.4441    0.4894 H   0  0  0  0  0  0  0  0  0  0  0  0
   -1.4934   -2.2507   -0.6021 H   0  0  0  0  0  0  0  0  0  0  0  0
   -4.2701   -0.7147    2.6530 H   0  0  0  0  0  0  0  0  0  0  0  0
   -3.6653    0.9289    2.1849 H   0  0  0  0  0  0  0  0  0  0  0  0
   -2.8483    0.4649    5.0807 H   0  0  0  0  0  0  0  0  0  0  0  0
   -0.6530   -0.0332    6.1467 H   0  0  0  0  0  0  0  0  0  0  0  0
    1.1722   -1.0820    4.8379 H   0  0  0  0  0  0  0  0  0  0  0  0
    0.8398   -1.6604    2.4495 H   0  0  0  0  0  0  0  0  0  0  0  0
    2.5029    1.2614    1.3682 H   0  0  0  0  0  0  0  0  0  0  0  0
    4.7734   -0.2831   -1.1434 H   0  0  0  0  0  0  0  0  0  0  0  0
    6.1166   -1.8105   -1.5233 H   0  0  0  0  0  0  0  0  0  0  0  0
    8.6596   -1.7082   -3.0958 H   0  0  0  0  0  0  0  0  0  0  0  0
    7.1284   -2.3528   -3.6744 H   0  0  0  0  0  0  0  0  0  0  0  0
    9.9922   -2.9373   -1.3790 H   0  0  0  0  0  0  0  0  0  0  0  0
   10.5169   -5.1404   -0.3786 H   0  0  0  0  0  0  0  0  0  0  0  0
    8.9097   -7.0228   -0.5833 H   0  0  0  0  0  0  0  0  0  0  0  0
    6.7688   -6.6891   -1.8164 H   0  0  0  0  0  0  0  0  0  0  0  0
    8.2738    1.4002    0.6720 H   0  0  0  0  0  0  0  0  0  0  0  0
    6.8534    2.5525    2.3434 H   0  0  0  0  0  0  0  0  0  0  0  0
    4.4084    2.2398    2.3317 H   0  0  0  0  0  0  0  0  0  0  0  0
  1  2  2  0  0  0  0
  2  3  1  0  0  0  0
  2 16  1  0  0  0  0
  3  4  1  0  0  0  0
  3 34  1  0  0  0  0
  4  5  1  0  0  0  0
  4 35  1  0  0  0  0
  4 36  1  0  0  0  0
  5  6  1  0  0  0  0
  5 37  1  0  0  0  0
  5 38  1  0  0  0  0
  6  7  1  0  0  0  0
  6 15  1  0  0  0  0
  7  8  2  0  0  0  0
  7  9  1  0  0  0  0
  9 10  1  0  0  0  0
  9 39  1  0  0  0  0
  9 40  1  0  0  0  0
 10 11  2  0  0  0  0
 10 15  1  0  0  0  0
 11 12  1  0  0  0  0
 11 41  1  0  0  0  0
 12 13  2  0  0  0  0
 12 42  1  0  0  0  0
 13 14  1  0  0  0  0
 13 43  1  0  0  0  0
 14 15  2  0  0  0  0
 14 44  1  0  0  0  0
 16 17  1  0  0  0  0
 16 45  1  0  0  0  0
 17 18  2  0  0  0  0
 17 33  1  0  0  0  0
 18 19  1  0  0  0  0
 18 46  1  0  0  0  0
 19 20  1  0  0  0  0
 19 31  2  0  0  0  0
 20 21  2  0  0  0  0
 20 22  1  0  0  0  0
 22 23  1  0  0  0  0
 22 47  1  0  0  0  0
 23 24  1  0  0  0  0
 23 48  1  0  0  0  0
 23 49  1  0  0  0  0
 24 25  2  0  0  0  0
 24 29  1  0  0  0  0
 25 26  1  0  0  0  0
 25 50  1  0  0  0  0
 26 27  2  0  0  0  0
 26 51  1  0  0  0  0
 27 28  1  0  0  0  0
 27 52  1  0  0  0  0
 28 29  2  0  0  0  0
 28 53  1  0  0  0  0
 29 30  1  0  0  0  0
 31 32  1  0  0  0  0
 31 54  1  0  0  0  0
 32 33  2  0  0  0  0
 32 55  1  0  0  0  0
 33 56  1  0  0  0  0
M  END
$$$$
