
 OpenBabel01122422513D

 45 48  0  0  0  0  0  0  0  0999 V2000
   -1.2647   -6.8269    1.3505 C   0  0  0  0  0  0  0  0  0  0  0  0
   -1.2533   -6.7061   -0.0880 N   0  0  0  0  0  0  0  0  0  0  0  0
   -1.8887   -7.6138   -0.8926 C   0  0  0  0  0  0  0  0  0  0  0  0
   -1.6503   -7.3899   -2.1559 N   0  0  0  0  0  0  0  0  0  0  0  0
   -0.8511   -6.2771   -2.1651 C   0  0  0  0  0  0  0  0  0  0  0  0
   -0.6304   -5.7538   -0.8932 C   0  0  0  0  0  0  0  0  0  0  0  0
    0.1432   -4.5589   -0.4443 C   0  0  0  0  0  0  0  0  0  0  0  0
    0.9994   -4.7351    0.6656 C   0  0  0  0  0  0  0  0  0  0  0  0
    1.7162   -3.6832    1.2265 C   0  0  0  0  0  0  0  0  0  0  0  0
    2.4718   -3.9036    2.3093 F   0  0  0  0  0  0  0  0  0  0  0  0
    1.6710   -2.4228    0.6726 C   0  0  0  0  0  0  0  0  0  0  0  0
    0.8992   -2.2175   -0.4680 C   0  0  0  0  0  0  0  0  0  0  0  0
    0.1102   -3.2539   -1.0334 C   0  0  0  0  0  0  0  0  0  0  0  0
   -0.6777   -2.9077   -2.2719 C   0  0  0  0  0  0  0  0  0  0  0  0
   -0.9050   -3.7611   -3.1181 O   0  0  0  0  0  0  0  0  0  0  0  0
   -1.0377   -1.5805   -2.4772 N   0  0  0  0  0  0  0  0  0  0  0  0
   -1.7525   -1.1141   -3.5682 C   0  0  0  0  0  0  0  0  0  0  0  0
   -2.6364   -1.8288   -4.2820 C   0  0  0  0  0  0  0  0  0  0  0  0
   -3.3604   -1.2685   -5.4102 C   0  0  0  0  0  0  0  0  0  0  0  0
   -4.3870   -2.0377   -6.1287 C   0  0  0  0  0  0  0  0  0  0  0  0
   -4.0628   -2.7778   -7.2663 C   0  0  0  0  0  0  0  0  0  0  0  0
   -5.0629   -3.5269   -7.8610 C   0  0  0  0  0  0  0  0  0  0  0  0
   -6.3352   -3.5817   -7.4091 N   0  0  0  0  0  0  0  0  0  0  0  0
   -6.6175   -2.8659   -6.2997 C   0  0  0  0  0  0  0  0  0  0  0  0
   -5.6905   -2.0864   -5.6310 C   0  0  0  0  0  0  0  0  0  0  0  0
   -3.0984   -0.0027   -5.7798 C   0  0  0  0  0  0  0  0  0  0  0  0
   -2.1889    0.7588   -5.0840 N   0  0  0  0  0  0  0  0  0  0  0  0
   -1.5038    0.3139   -3.9744 C   0  0  0  0  0  0  0  0  0  0  0  0
   -0.7089    1.0164   -3.3544 O   0  0  0  0  0  0  0  0  0  0  0  0
   -1.9541   -7.6243    1.6447 H   0  0  0  0  0  0  0  0  0  0  0  0
   -1.5850   -5.8823    1.7909 H   0  0  0  0  0  0  0  0  0  0  0  0
   -0.2664   -7.1162    1.6862 H   0  0  0  0  0  0  0  0  0  0  0  0
   -2.4892   -8.4278   -0.5067 H   0  0  0  0  0  0  0  0  0  0  0  0
   -0.4786   -5.9094   -3.1119 H   0  0  0  0  0  0  0  0  0  0  0  0
    1.1538   -5.7094    1.1136 H   0  0  0  0  0  0  0  0  0  0  0  0
    2.2563   -1.6171    1.1053 H   0  0  0  0  0  0  0  0  0  0  0  0
    0.9656   -1.2309   -0.9170 H   0  0  0  0  0  0  0  0  0  0  0  0
   -0.6003   -0.8381   -1.9462 H   0  0  0  0  0  0  0  0  0  0  0  0
   -2.8672   -2.8589   -4.0235 H   0  0  0  0  0  0  0  0  0  0  0  0
   -3.0540   -2.7943   -7.6664 H   0  0  0  0  0  0  0  0  0  0  0  0
   -4.8592   -4.1333   -8.7413 H   0  0  0  0  0  0  0  0  0  0  0  0
   -7.6412   -2.9450   -5.9448 H   0  0  0  0  0  0  0  0  0  0  0  0
   -5.9755   -1.5464   -4.7345 H   0  0  0  0  0  0  0  0  0  0  0  0
   -3.5977    0.4888   -6.6128 H   0  0  0  0  0  0  0  0  0  0  0  0
   -1.9982    1.7092   -5.3701 H   0  0  0  0  0  0  0  0  0  0  0  0
  1  2  1  0  0  0  0
  1 30  1  0  0  0  0
  1 31  1  0  0  0  0
  1 32  1  0  0  0  0
  2  3  1  0  0  0  0
  2  6  1  0  0  0  0
  3  4  2  0  0  0  0
  3 33  1  0  0  0  0
  4  5  1  0  0  0  0
  5  6  2  0  0  0  0
  5 34  1  0  0  0  0
  6  7  1  0  0  0  0
  7  8  2  0  0  0  0
  7 13  1  0  0  0  0
  8  9  1  0  0  0  0
  8 35  1  0  0  0  0
  9 10  1  0  0  0  0
  9 11  2  0  0  0  0
 11 12  1  0  0  0  0
 11 36  1  0  0  0  0
 12 13  2  0  0  0  0
 12 37  1  0  0  0  0
 13 14  1  0  0  0  0
 14 15  2  0  0  0  0
 14 16  1  0  0  0  0
 16 17  1  0  0  0  0
 16 38  1  0  0  0  0
 17 18  2  0  0  0  0
 17 28  1  0  0  0  0
 18 19  1  0  0  0  0
 18 39  1  0  0  0  0
 19 20  1  0  0  0  0
 19 26  2  0  0  0  0
 20 21  2  0  0  0  0
 20 25  1  0  0  0  0
 21 22  1  0  0  0  0
 21 40  1  0  0  0  0
 22 23  2  0  0  0  0
 22 41  1  0  0  0  0
 23 24  1  0  0  0  0
 24 25  2  0  0  0  0
 24 42  1  0  0  0  0
 25 43  1  0  0  0  0
 26 27  1  0  0  0  0
 26 44  1  0  0  0  0
 27 28  1  0  0  0  0
 27 45  1  0  0  0  0
 28 29  2  0  0  0  0
M  END
$$$$
