
 OpenBabel01122422513D

 49 52  0  0  0  0  0  0  0  0999 V2000
    0.6439   -4.4243   -2.2891 C   0  0  0  0  0  0  0  0  0  0  0  0
   -0.2677   -3.3025   -1.8852 C   0  0  0  0  0  0  0  0  0  0  0  0
   -1.1449   -2.7154   -2.8028 C   0  0  0  0  0  0  0  0  0  0  0  0
   -2.0571   -1.7378   -2.3875 C   0  0  0  0  0  0  0  0  0  0  0  0
   -2.0876   -1.3201   -1.0499 C   0  0  0  0  0  0  0  0  0  0  0  0
   -3.1101   -0.3689   -0.5209 C   0  0  0  0  0  0  0  0  0  0  0  0
   -3.3779   -0.3599    0.6812 O   0  0  0  0  0  0  0  0  0  0  0  0
   -3.9168    0.4861   -1.4237 C   0  0  0  0  0  0  0  0  0  0  0  0
   -3.2958    1.2400   -2.4251 C   0  0  0  0  0  0  0  0  0  0  0  0
   -4.0747    1.9093   -3.3686 C   0  0  0  0  0  0  0  0  0  0  0  0
   -5.4669    1.8331   -3.3080 C   0  0  0  0  0  0  0  0  0  0  0  0
   -6.0897    1.1031   -2.2927 C   0  0  0  0  0  0  0  0  0  0  0  0
   -5.3186    0.4389   -1.3348 C   0  0  0  0  0  0  0  0  0  0  0  0
   -5.9307   -0.2589   -0.2701 N   0  0  0  0  0  0  0  0  0  0  0  0
   -6.9315   -1.1906   -0.4736 C   0  0  0  0  0  0  0  0  0  0  0  0
   -7.4045   -1.4822   -1.5706 O   0  0  0  0  0  0  0  0  0  0  0  0
   -7.4009   -1.8687    0.8041 C   0  0  0  0  0  0  0  0  0  0  0  0
   -8.6661   -1.2497    1.3466 C   0  0  0  0  0  0  0  0  0  0  0  0
   -9.8224   -1.2120    0.5622 C   0  0  0  0  0  0  0  0  0  0  0  0
  -10.9976   -0.6390    1.0525 C   0  0  0  0  0  0  0  0  0  0  0  0
  -11.0516   -0.1000    2.3436 C   0  0  0  0  0  0  0  0  0  0  0  0
  -12.3079    0.4787    2.8148 C   0  0  0  0  0  0  0  0  0  0  0  0
  -13.4689    0.4891    2.1895 N   0  0  0  0  0  0  0  0  0  0  0  0
  -14.3572    1.1396    3.0084 N   0  0  0  0  0  0  0  0  0  0  0  0
  -13.7671    1.5362    4.1236 N   0  0  0  0  0  0  0  0  0  0  0  0
  -12.4939    1.1327    4.0058 N   0  0  0  0  0  0  0  0  0  0  0  0
   -9.8931   -0.1501    3.1331 C   0  0  0  0  0  0  0  0  0  0  0  0
   -8.7116   -0.7192    2.6402 C   0  0  0  0  0  0  0  0  0  0  0  0
   -1.1865   -1.8852   -0.1407 C   0  0  0  0  0  0  0  0  0  0  0  0
   -0.2826   -2.8661   -0.5558 C   0  0  0  0  0  0  0  0  0  0  0  0
    0.5491   -4.6594   -3.3541 H   0  0  0  0  0  0  0  0  0  0  0  0
    0.3876   -5.3279   -1.7250 H   0  0  0  0  0  0  0  0  0  0  0  0
    1.6872   -4.1613   -2.0900 H   0  0  0  0  0  0  0  0  0  0  0  0
   -1.1475   -3.0360   -3.8432 H   0  0  0  0  0  0  0  0  0  0  0  0
   -2.7574   -1.3519   -3.1237 H   0  0  0  0  0  0  0  0  0  0  0  0
   -2.2122    1.2912   -2.4908 H   0  0  0  0  0  0  0  0  0  0  0  0
   -3.5973    2.4803   -4.1612 H   0  0  0  0  0  0  0  0  0  0  0  0
   -6.0729    2.3501   -4.0487 H   0  0  0  0  0  0  0  0  0  0  0  0
   -7.1765    1.0775   -2.2448 H   0  0  0  0  0  0  0  0  0  0  0  0
   -5.3346   -0.4017    0.5471 H   0  0  0  0  0  0  0  0  0  0  0  0
   -6.6016   -1.8453    1.5549 H   0  0  0  0  0  0  0  0  0  0  0  0
   -7.5763   -2.9296    0.5862 H   0  0  0  0  0  0  0  0  0  0  0  0
   -9.8196   -1.6188   -0.4494 H   0  0  0  0  0  0  0  0  0  0  0  0
  -11.8768   -0.6163    0.4102 H   0  0  0  0  0  0  0  0  0  0  0  0
  -11.8398    1.3336    4.7455 H   0  0  0  0  0  0  0  0  0  0  0  0
   -9.8764    0.2422    4.1465 H   0  0  0  0  0  0  0  0  0  0  0  0
   -7.8293   -0.7441    3.2764 H   0  0  0  0  0  0  0  0  0  0  0  0
   -1.2020   -1.5857    0.9053 H   0  0  0  0  0  0  0  0  0  0  0  0
    0.3925   -3.3089    0.1734 H   0  0  0  0  0  0  0  0  0  0  0  0
  1  2  1  0  0  0  0
  1 31  1  0  0  0  0
  1 32  1  0  0  0  0
  1 33  1  0  0  0  0
  2  3  2  0  0  0  0
  2 30  1  0  0  0  0
  3  4  1  0  0  0  0
  3 34  1  0  0  0  0
  4  5  2  0  0  0  0
  4 35  1  0  0  0  0
  5  6  1  0  0  0  0
  5 29  1  0  0  0  0
  6  7  2  0  0  0  0
  6  8  1  0  0  0  0
  8  9  2  0  0  0  0
  8 13  1  0  0  0  0
  9 10  1  0  0  0  0
  9 36  1  0  0  0  0
 10 11  2  0  0  0  0
 10 37  1  0  0  0  0
 11 12  1  0  0  0  0
 11 38  1  0  0  0  0
 12 13  2  0  0  0  0
 12 39  1  0  0  0  0
 13 14  1  0  0  0  0
 14 15  1  0  0  0  0
 14 40  1  0  0  0  0
 15 16  2  0  0  0  0
 15 17  1  0  0  0  0
 17 18  1  0  0  0  0
 17 41  1  0  0  0  0
 17 42  1  0  0  0  0
 18 19  2  0  0  0  0
 18 28  1  0  0  0  0
 19 20  1  0  0  0  0
 19 43  1  0  0  0  0
 20 21  2  0  0  0  0
 20 44  1  0  0  0  0
 21 22  1  0  0  0  0
 21 27  1  0  0  0  0
 22 23  2  0  0  0  0
 22 26  1  0  0  0  0
 23 24  1  0  0  0  0
 24 25  2  0  0  0  0
 25 26  1  0  0  0  0
 26 45  1  0  0  0  0
 27 28  2  0  0  0  0
 27 46  1  0  0  0  0
 28 47  1  0  0  0  0
 29 30  2  0  0  0  0
 29 48  1  0  0  0  0
 30 49  1  0  0  0  0
M  END
$$$$
