
 OpenBabel01122422513D

 44 47  0  0  0  0  0  0  0  0999 V2000
    2.7329    0.0101    1.4097 O   0  0  0  0  0  0  0  0  0  0  0  0
    2.4069   -0.1080    0.2398 C   0  0  0  0  0  0  0  0  0  0  0  0
    1.4032    0.5470   -0.3896 O   0  0  0  0  0  0  0  0  0  0  0  0
    0.6332    1.4665    0.3953 C   0  0  0  0  0  0  0  0  0  0  0  0
    0.7097    2.8371   -0.2287 C   0  0  0  0  0  0  0  0  0  0  0  0
   -0.1779    3.2128   -1.2477 C   0  0  0  0  0  0  0  0  0  0  0  0
   -0.1114    4.4914   -1.8090 C   0  0  0  0  0  0  0  0  0  0  0  0
    0.8473    5.3997   -1.3656 C   0  0  0  0  0  0  0  0  0  0  0  0
    1.7463    5.0298   -0.3663 C   0  0  0  0  0  0  0  0  0  0  0  0
    1.6814    3.7531    0.1957 C   0  0  0  0  0  0  0  0  0  0  0  0
    3.0905   -1.0405   -0.7033 C   0  0  0  0  0  0  0  0  0  0  0  0
    2.6558   -1.1900   -2.0263 C   0  0  0  0  0  0  0  0  0  0  0  0
    3.2908   -2.1018   -2.8635 C   0  0  0  0  0  0  0  0  0  0  0  0
    4.3855   -2.8293   -2.4017 C   0  0  0  0  0  0  0  0  0  0  0  0
    4.8553   -3.7839   -3.2153 F   0  0  0  0  0  0  0  0  0  0  0  0
    4.9087   -2.6288   -1.1140 C   0  0  0  0  0  0  0  0  0  0  0  0
    6.1205   -3.2121   -0.6377 N   0  0  0  0  0  0  0  0  0  0  0  0
    7.1563   -3.6269   -1.4611 C   0  0  0  0  0  0  0  0  0  0  0  0
    7.1613   -3.4994   -2.6824 O   0  0  0  0  0  0  0  0  0  0  0  0
    8.4129   -4.1487   -0.7881 C   0  0  0  0  0  0  0  0  0  0  0  0
    8.4453   -4.6184    0.4820 C   0  0  0  0  0  0  0  0  0  0  0  0
    9.6638   -5.1662    1.0728 C   0  0  0  0  0  0  0  0  0  0  0  0
   10.7769   -5.2344    0.3256 C   0  0  0  0  0  0  0  0  0  0  0  0
   10.7608   -4.7708   -0.9841 N   0  0  0  0  0  0  0  0  0  0  0  0
   11.7740   -4.7574   -1.8839 N   0  0  0  0  0  0  0  0  0  0  0  0
   11.3312   -4.2233   -3.0131 N   0  0  0  0  0  0  0  0  0  0  0  0
   10.0217   -3.8906   -2.8392 C   0  0  0  0  0  0  0  0  0  0  0  0
    9.6220   -4.2228   -1.5642 C   0  0  0  0  0  0  0  0  0  0  0  0
    4.2078   -1.7731   -0.2478 C   0  0  0  0  0  0  0  0  0  0  0  0
    0.9413    1.5094    1.4461 H   0  0  0  0  0  0  0  0  0  0  0  0
   -0.4063    1.1174    0.3894 H   0  0  0  0  0  0  0  0  0  0  0  0
   -0.9315    2.5169   -1.6086 H   0  0  0  0  0  0  0  0  0  0  0  0
   -0.8095    4.7798   -2.5912 H   0  0  0  0  0  0  0  0  0  0  0  0
    0.8941    6.3961   -1.7971 H   0  0  0  0  0  0  0  0  0  0  0  0
    2.4971    5.7376   -0.0236 H   0  0  0  0  0  0  0  0  0  0  0  0
    2.3906    3.4783    0.9737 H   0  0  0  0  0  0  0  0  0  0  0  0
    1.8161   -0.6190   -2.4155 H   0  0  0  0  0  0  0  0  0  0  0  0
    2.9419   -2.2599   -3.8800 H   0  0  0  0  0  0  0  0  0  0  0  0
    6.3266   -3.0795    0.3424 H   0  0  0  0  0  0  0  0  0  0  0  0
    7.5677   -4.6490    1.1193 H   0  0  0  0  0  0  0  0  0  0  0  0
    9.6488   -5.5194    2.0981 H   0  0  0  0  0  0  0  0  0  0  0  0
   11.7188   -5.6413    0.6749 H   0  0  0  0  0  0  0  0  0  0  0  0
    9.4424   -3.4418   -3.6353 H   0  0  0  0  0  0  0  0  0  0  0  0
    4.5435   -1.6332    0.7780 H   0  0  0  0  0  0  0  0  0  0  0  0
  1  2  2  0  0  0  0
  2  3  1  0  0  0  0
  2 11  1  0  0  0  0
  3  4  1  0  0  0  0
  4  5  1  0  0  0  0
  4 30  1  0  0  0  0
  4 31  1  0  0  0  0
  5  6  2  0  0  0  0
  5 10  1  0  0  0  0
  6  7  1  0  0  0  0
  6 32  1  0  0  0  0
  7  8  2  0  0  0  0
  7 33  1  0  0  0  0
  8  9  1  0  0  0  0
  8 34  1  0  0  0  0
  9 10  2  0  0  0  0
  9 35  1  0  0  0  0
 10 36  1  0  0  0  0
 11 12  2  0  0  0  0
 11 29  1  0  0  0  0
 12 13  1  0  0  0  0
 12 37  1  0  0  0  0
 13 14  2  0  0  0  0
 13 38  1  0  0  0  0
 14 15  1  0  0  0  0
 14 16  1  0  0  0  0
 16 17  1  0  0  0  0
 16 29  2  0  0  0  0
 17 18  1  0  0  0  0
 17 39  1  0  0  0  0
 18 19  2  0  0  0  0
 18 20  1  0  0  0  0
 20 21  2  0  0  0  0
 20 28  1  0  0  0  0
 21 22  1  0  0  0  0
 21 40  1  0  0  0  0
 22 23  2  0  0  0  0
 22 41  1  0  0  0  0
 23 24  1  0  0  0  0
 23 42  1  0  0  0  0
 24 25  1  0  0  0  0
 24 28  1  0  0  0  0
 25 26  2  0  0  0  0
 26 27  1  0  0  0  0
 27 28  2  0  0  0  0
 27 43  1  0  0  0  0
 29 44  1  0  0  0  0
M  END
$$$$
