
 OpenBabel01122422513D

 41 44  0  0  0  0  0  0  0  0999 V2000
    1.0382   -0.2453    1.1880 O   0  0  0  0  0  0  0  0  0  0  0  0
    2.1999   -0.1631    0.7952 C   0  0  0  0  0  0  0  0  0  0  0  0
    2.8372    0.9931    0.3721 N   0  0  0  0  0  0  0  0  0  0  0  0
    2.2481    2.2812    0.3061 C   0  0  0  0  0  0  0  0  0  0  0  0
    1.1462    2.5844    1.1243 C   0  0  0  0  0  0  0  0  0  0  0  0
    0.5655    3.8557    1.1400 C   0  0  0  0  0  0  0  0  0  0  0  0
    1.0877    4.8567    0.3447 C   0  0  0  0  0  0  0  0  0  0  0  0
    2.1739    4.5831   -0.4843 C   0  0  0  0  0  0  0  0  0  0  0  0
    2.7506    3.2989   -0.5292 C   0  0  0  0  0  0  0  0  0  0  0  0
    3.8339    3.2431   -1.3817 O   0  0  0  0  0  0  0  0  0  0  0  0
    4.1246    2.1402   -2.1397 C   0  0  0  0  0  0  0  0  0  0  0  0
    3.2113    1.1771   -2.5660 C   0  0  0  0  0  0  0  0  0  0  0  0
    3.6820    0.0244   -3.1912 C   0  0  0  0  0  0  0  0  0  0  0  0
    2.8215   -0.9568   -3.4916 F   0  0  0  0  0  0  0  0  0  0  0  0
    5.0304   -0.1447   -3.4766 C   0  0  0  0  0  0  0  0  0  0  0  0
    5.9121    0.8741   -3.1504 C   0  0  0  0  0  0  0  0  0  0  0  0
    7.2104    0.7472   -3.4514 F   0  0  0  0  0  0  0  0  0  0  0  0
    5.4724    2.0143   -2.4893 C   0  0  0  0  0  0  0  0  0  0  0  0
    3.0005   -1.4170    0.7023 C   0  0  0  0  0  0  0  0  0  0  0  0
    2.3968   -2.6156    1.0589 C   0  0  0  0  0  0  0  0  0  0  0  0
    3.1384   -3.7921    0.9926 C   0  0  0  0  0  0  0  0  0  0  0  0
    2.5351   -5.0649    1.3609 C   0  0  0  0  0  0  0  0  0  0  0  0
    1.2495   -5.2160    1.7258 N   0  0  0  0  0  0  0  0  0  0  0  0
    1.2177   -6.5361    1.9494 N   0  0  0  0  0  0  0  0  0  0  0  0
    2.3668   -7.1886    1.7533 N   0  0  0  0  0  0  0  0  0  0  0  0
    3.2230   -6.2518    1.3736 N   0  0  0  0  0  0  0  0  0  0  0  0
    4.4675   -3.7124    0.5657 C   0  0  0  0  0  0  0  0  0  0  0  0
    4.9856   -2.4703    0.2180 C   0  0  0  0  0  0  0  0  0  0  0  0
    4.2871   -1.3140    0.2687 N   0  0  0  0  0  0  0  0  0  0  0  0
    3.7515    0.8493   -0.0457 H   0  0  0  0  0  0  0  0  0  0  0  0
    0.7274    1.8526    1.8081 H   0  0  0  0  0  0  0  0  0  0  0  0
   -0.2779    4.0491    1.7960 H   0  0  0  0  0  0  0  0  0  0  0  0
    0.6536    5.8547    0.3685 H   0  0  0  0  0  0  0  0  0  0  0  0
    2.5831    5.3806   -1.1015 H   0  0  0  0  0  0  0  0  0  0  0  0
    2.1480    1.2679   -2.3677 H   0  0  0  0  0  0  0  0  0  0  0  0
    5.3864   -1.0527   -3.9469 H   0  0  0  0  0  0  0  0  0  0  0  0
    6.1867    2.7895   -2.2258 H   0  0  0  0  0  0  0  0  0  0  0  0
    1.3594   -2.6285    1.3860 H   0  0  0  0  0  0  0  0  0  0  0  0
    0.3721   -7.0157    2.2492 H   0  0  0  0  0  0  0  0  0  0  0  0
    5.0950   -4.5990    0.5047 H   0  0  0  0  0  0  0  0  0  0  0  0
    6.0145   -2.3783   -0.1212 H   0  0  0  0  0  0  0  0  0  0  0  0
  1  2  2  0  0  0  0
  2  3  1  0  0  0  0
  2 19  1  0  0  0  0
  3  4  1  0  0  0  0
  3 30  1  0  0  0  0
  4  5  2  0  0  0  0
  4  9  1  0  0  0  0
  5  6  1  0  0  0  0
  5 31  1  0  0  0  0
  6  7  2  0  0  0  0
  6 32  1  0  0  0  0
  7  8  1  0  0  0  0
  7 33  1  0  0  0  0
  8  9  2  0  0  0  0
  8 34  1  0  0  0  0
  9 10  1  0  0  0  0
 10 11  1  0  0  0  0
 11 12  2  0  0  0  0
 11 18  1  0  0  0  0
 12 13  1  0  0  0  0
 12 35  1  0  0  0  0
 13 14  1  0  0  0  0
 13 15  2  0  0  0  0
 15 16  1  0  0  0  0
 15 36  1  0  0  0  0
 16 17  1  0  0  0  0
 16 18  2  0  0  0  0
 18 37  1  0  0  0  0
 19 20  2  0  0  0  0
 19 29  1  0  0  0  0
 20 21  1  0  0  0  0
 20 38  1  0  0  0  0
 21 22  1  0  0  0  0
 21 27  2  0  0  0  0
 22 23  2  0  0  0  0
 22 26  1  0  0  0  0
 23 24  1  0  0  0  0
 24 25  1  0  0  0  0
 24 39  1  0  0  0  0
 25 26  2  0  0  0  0
 27 28  1  0  0  0  0
 27 40  1  0  0  0  0
 28 29  2  0  0  0  0
 28 41  1  0  0  0  0
M  END
$$$$
