
 OpenBabel01122422513D

 52 55  0  0  0  0  0  0  0  0999 V2000
   -0.3218   -1.2303    0.7075 N   0  0  0  0  0  0  0  0  0  0  0  0
    0.8902   -0.4266    0.8426 C   0  0  0  0  0  0  0  0  0  0  0  0
    1.6200   -0.7902    2.1400 C   0  0  0  0  0  0  0  0  0  0  0  0
    2.9156    0.0142    2.3253 C   0  0  0  0  0  0  0  0  0  0  0  0
    3.7001   -0.3345    3.5799 C   0  0  0  0  0  0  0  0  0  0  0  0
    4.1713   -1.6339    3.7967 C   0  0  0  0  0  0  0  0  0  0  0  0
    4.9831   -1.9436    4.9046 C   0  0  0  0  0  0  0  0  0  0  0  0
    5.3731   -0.9653    5.8314 C   0  0  0  0  0  0  0  0  0  0  0  0
    6.3231   -1.3924    6.9613 C   0  0  0  0  0  0  0  0  0  0  0  0
    6.8148   -2.5102    6.9594 O   0  0  0  0  0  0  0  0  0  0  0  0
    6.4899   -0.4836    7.9821 N   0  0  0  0  0  0  0  0  0  0  0  0
    7.1183   -0.6329    9.2467 C   0  0  0  0  0  0  0  0  0  0  0  0
    6.4098    0.0496   10.2399 C   0  0  0  0  0  0  0  0  0  0  0  0
    6.9855    0.3419   11.4561 C   0  0  0  0  0  0  0  0  0  0  0  0
    8.2721   -0.0778   11.7221 C   0  0  0  0  0  0  0  0  0  0  0  0
    8.8920    0.5046   12.8258 N   0  0  0  0  0  0  0  0  0  0  0  0
    9.8352   -0.1738   13.3660 C   0  0  0  0  0  0  0  0  0  0  0  0
   10.2505   -1.4047   12.9237 N   0  0  0  0  0  0  0  0  0  0  0  0
   10.5367   -2.3597   13.9600 C   0  0  0  0  0  0  0  0  0  0  0  0
   11.4622   -3.3920   13.8391 C   0  0  0  0  0  0  0  0  0  0  0  0
   11.5701   -4.3596   14.8533 C   0  0  0  0  0  0  0  0  0  0  0  0
   10.7411   -4.3195   15.9786 C   0  0  0  0  0  0  0  0  0  0  0  0
    9.8496   -3.2705   16.1366 C   0  0  0  0  0  0  0  0  0  0  0  0
    9.7677   -2.2909   15.1495 C   0  0  0  0  0  0  0  0  0  0  0  0
   10.0182   -1.7849   11.5754 C   0  0  0  0  0  0  0  0  0  0  0  0
   10.5936   -2.6846   10.9749 O   0  0  0  0  0  0  0  0  0  0  0  0
    8.8882   -1.0216   10.8920 C   0  0  0  0  0  0  0  0  0  0  0  0
    8.3306   -1.2738    9.5987 C   0  0  0  0  0  0  0  0  0  0  0  0
    4.8685    0.3354    5.6324 C   0  0  0  0  0  0  0  0  0  0  0  0
    4.0450    0.6441    4.5228 C   0  0  0  0  0  0  0  0  0  0  0  0
   -0.8270   -0.9532   -0.1337 H   0  0  0  0  0  0  0  0  0  0  0  0
   -0.9418   -1.0444    1.4952 H   0  0  0  0  0  0  0  0  0  0  0  0
    0.6201    0.6353    0.8332 H   0  0  0  0  0  0  0  0  0  0  0  0
    1.5332   -0.6142   -0.0241 H   0  0  0  0  0  0  0  0  0  0  0  0
    1.8444   -1.8634    2.1275 H   0  0  0  0  0  0  0  0  0  0  0  0
    0.9585   -0.6129    2.9970 H   0  0  0  0  0  0  0  0  0  0  0  0
    2.6705    1.0851    2.3244 H   0  0  0  0  0  0  0  0  0  0  0  0
    3.5763   -0.1450    1.4623 H   0  0  0  0  0  0  0  0  0  0  0  0
    3.9342   -2.4267    3.0892 H   0  0  0  0  0  0  0  0  0  0  0  0
    5.3211   -2.9702    5.0301 H   0  0  0  0  0  0  0  0  0  0  0  0
    5.8611    0.3048    7.9461 H   0  0  0  0  0  0  0  0  0  0  0  0
    5.3907    0.3821   10.0629 H   0  0  0  0  0  0  0  0  0  0  0  0
    6.4443    0.9166   12.1988 H   0  0  0  0  0  0  0  0  0  0  0  0
   10.3347    0.1972   14.2771 H   0  0  0  0  0  0  0  0  0  0  0  0
   12.1277   -3.4442   12.9825 H   0  0  0  0  0  0  0  0  0  0  0  0
   12.2969   -5.1639   14.7581 H   0  0  0  0  0  0  0  0  0  0  0  0
   10.7822   -5.1082   16.7237 H   0  0  0  0  0  0  0  0  0  0  0  0
    9.1948   -3.2240   17.0026 H   0  0  0  0  0  0  0  0  0  0  0  0
    9.0250   -1.5074   15.2996 H   0  0  0  0  0  0  0  0  0  0  0  0
    8.8656   -1.9001    8.8870 H   0  0  0  0  0  0  0  0  0  0  0  0
    5.1063    1.1564    6.3027 H   0  0  0  0  0  0  0  0  0  0  0  0
    3.7026    1.6707    4.3876 H   0  0  0  0  0  0  0  0  0  0  0  0
  1  2  1  0  0  0  0
  1 31  1  0  0  0  0
  1 32  1  0  0  0  0
  2  3  1  0  0  0  0
  2 33  1  0  0  0  0
  2 34  1  0  0  0  0
  3  4  1  0  0  0  0
  3 35  1  0  0  0  0
  3 36  1  0  0  0  0
  4  5  1  0  0  0  0
  4 37  1  0  0  0  0
  4 38  1  0  0  0  0
  5  6  2  0  0  0  0
  5 30  1  0  0  0  0
  6  7  1  0  0  0  0
  6 39  1  0  0  0  0
  7  8  2  0  0  0  0
  7 40  1  0  0  0  0
  8  9  1  0  0  0  0
  8 29  1  0  0  0  0
  9 10  2  0  0  0  0
  9 11  1  0  0  0  0
 11 12  1  0  0  0  0
 11 41  1  0  0  0  0
 12 13  2  0  0  0  0
 12 28  1  0  0  0  0
 13 14  1  0  0  0  0
 13 42  1  0  0  0  0
 14 15  2  0  0  0  0
 14 43  1  0  0  0  0
 15 16  1  0  0  0  0
 15 27  1  0  0  0  0
 16 17  2  0  0  0  0
 17 18  1  0  0  0  0
 17 44  1  0  0  0  0
 18 19  1  0  0  0  0
 18 25  1  0  0  0  0
 19 20  2  0  0  0  0
 19 24  1  0  0  0  0
 20 21  1  0  0  0  0
 20 45  1  0  0  0  0
 21 22  2  0  0  0  0
 21 46  1  0  0  0  0
 22 23  1  0  0  0  0
 22 47  1  0  0  0  0
 23 24  2  0  0  0  0
 23 48  1  0  0  0  0
 24 49  1  0  0  0  0
 25 26  2  0  0  0  0
 25 27  1  0  0  0  0
 27 28  2  0  0  0  0
 28 50  1  0  0  0  0
 29 30  2  0  0  0  0
 29 51  1  0  0  0  0
 30 52  1  0  0  0  0
M  END
$$$$
