
 OpenBabel01122422513D

 44 47  0  0  0  0  0  0  0  0999 V2000
    0.8378   -0.0907   -0.1665 O   0  0  0  0  0  0  0  0  0  0  0  0
    2.0588   -0.0334   -0.0757 C   0  0  0  0  0  0  0  0  0  0  0  0
    2.8151   -1.0617    0.4421 N   0  0  0  0  0  0  0  0  0  0  0  0
    2.2070   -2.2544    0.9818 C   0  0  0  0  0  0  0  0  0  0  0  0
    2.0366   -2.1984    2.4793 C   0  0  0  0  0  0  0  0  0  0  0  0
    0.9450   -1.5210    3.0386 C   0  0  0  0  0  0  0  0  0  0  0  0
    0.7353   -1.5317    4.4142 C   0  0  0  0  0  0  0  0  0  0  0  0
    1.6041   -2.2381    5.2487 C   0  0  0  0  0  0  0  0  0  0  0  0
    2.7021   -2.9334    4.7205 C   0  0  0  0  0  0  0  0  0  0  0  0
    3.5244   -3.7705    5.5932 C   0  0  0  0  0  0  0  0  0  0  0  0
    3.4142   -4.1820    6.9092 C   0  0  0  0  0  0  0  0  0  0  0  0
    4.4795   -5.0823    7.1499 C   0  0  0  0  0  0  0  0  0  0  0  0
    5.1913   -5.1491    5.9775 C   0  0  0  0  0  0  0  0  0  0  0  0
    4.6262   -4.3560    5.0306 O   0  0  0  0  0  0  0  0  0  0  0  0
    2.9268   -2.8723    3.3342 C   0  0  0  0  0  0  0  0  0  0  0  0
    2.8309    1.0960   -0.5302 C   0  0  0  0  0  0  0  0  0  0  0  0
    4.0349    1.0967   -1.2188 C   0  0  0  0  0  0  0  0  0  0  0  0
    4.1944    2.4172   -1.6268 C   0  0  0  0  0  0  0  0  0  0  0  0
    5.1614    2.9628   -2.3668 O   0  0  0  0  0  0  0  0  0  0  0  0
    3.2114    3.2182   -1.2544 N   0  0  0  0  0  0  0  0  0  0  0  0
    2.4241    2.4293   -0.4703 N   0  0  0  0  0  0  0  0  0  0  0  0
    1.3836    3.0314    0.2839 C   0  0  0  0  0  0  0  0  0  0  0  0
    0.8089    4.2304   -0.1667 C   0  0  0  0  0  0  0  0  0  0  0  0
   -0.2316    4.8246    0.5547 C   0  0  0  0  0  0  0  0  0  0  0  0
   -0.6875    4.2422    1.7369 C   0  0  0  0  0  0  0  0  0  0  0  0
   -0.0856    3.0790    2.2123 C   0  0  0  0  0  0  0  0  0  0  0  0
    0.9517    2.4885    1.4934 C   0  0  0  0  0  0  0  0  0  0  0  0
    1.5829    1.4506    2.0591 F   0  0  0  0  0  0  0  0  0  0  0  0
    3.7946   -0.9053    0.6293 H   0  0  0  0  0  0  0  0  0  0  0  0
    2.8534   -3.0948    0.7066 H   0  0  0  0  0  0  0  0  0  0  0  0
    1.2351   -2.4358    0.5084 H   0  0  0  0  0  0  0  0  0  0  0  0
    0.2405   -0.9940    2.3960 H   0  0  0  0  0  0  0  0  0  0  0  0
   -0.1223   -1.0151    4.8385 H   0  0  0  0  0  0  0  0  0  0  0  0
    1.3970   -2.2540    6.3150 H   0  0  0  0  0  0  0  0  0  0  0  0
    2.6348   -3.8996    7.6025 H   0  0  0  0  0  0  0  0  0  0  0  0
    4.6914   -5.6241    8.0609 H   0  0  0  0  0  0  0  0  0  0  0  0
    6.0703   -5.6958    5.6661 H   0  0  0  0  0  0  0  0  0  0  0  0
    3.7783   -3.3995    2.9077 H   0  0  0  0  0  0  0  0  0  0  0  0
    4.6435    0.2396   -1.4659 H   0  0  0  0  0  0  0  0  0  0  0  0
    5.8247    2.2901   -2.5908 H   0  0  0  0  0  0  0  0  0  0  0  0
    1.1449    4.6976   -1.0911 H   0  0  0  0  0  0  0  0  0  0  0  0
   -0.6874    5.7418    0.1890 H   0  0  0  0  0  0  0  0  0  0  0  0
   -1.4978    4.7033    2.2957 H   0  0  0  0  0  0  0  0  0  0  0  0
   -0.4037    2.6336    3.1497 H   0  0  0  0  0  0  0  0  0  0  0  0
  1  2  2  0  0  0  0
  2  3  1  0  0  0  0
  2 16  1  0  0  0  0
  3  4  1  0  0  0  0
  3 29  1  0  0  0  0
  4  5  1  0  0  0  0
  4 30  1  0  0  0  0
  4 31  1  0  0  0  0
  5  6  2  0  0  0  0
  5 15  1  0  0  0  0
  6  7  1  0  0  0  0
  6 32  1  0  0  0  0
  7  8  2  0  0  0  0
  7 33  1  0  0  0  0
  8  9  1  0  0  0  0
  8 34  1  0  0  0  0
  9 10  1  0  0  0  0
  9 15  2  0  0  0  0
 10 11  2  0  0  0  0
 10 14  1  0  0  0  0
 11 12  1  0  0  0  0
 11 35  1  0  0  0  0
 12 13  2  0  0  0  0
 12 36  1  0  0  0  0
 13 14  1  0  0  0  0
 13 37  1  0  0  0  0
 15 38  1  0  0  0  0
 16 17  2  0  0  0  0
 16 21  1  0  0  0  0
 17 18  1  0  0  0  0
 17 39  1  0  0  0  0
 18 19  1  0  0  0  0
 18 20  2  0  0  0  0
 19 40  1  0  0  0  0
 20 21  1  0  0  0  0
 21 22  1  0  0  0  0
 22 23  2  0  0  0  0
 22 27  1  0  0  0  0
 23 24  1  0  0  0  0
 23 41  1  0  0  0  0
 24 25  2  0  0  0  0
 24 42  1  0  0  0  0
 25 26  1  0  0  0  0
 25 43  1  0  0  0  0
 26 27  2  0  0  0  0
 26 44  1  0  0  0  0
 27 28  1  0  0  0  0
M  END
$$$$
