
 OpenBabel01122422513D

 51 54  0  0  0  0  0  0  0  0999 V2000
    6.1532    0.4665    8.3560 C   0  0  0  0  0  0  0  0  0  0  0  0
    6.7100    0.4517    7.0478 O   0  0  0  0  0  0  0  0  0  0  0  0
    6.5971   -0.8396    6.4499 C   0  0  0  0  0  0  0  0  0  0  0  0
    7.1594   -0.8006    5.0563 C   0  0  0  0  0  0  0  0  0  0  0  0
    8.4972   -0.4528    4.8245 C   0  0  0  0  0  0  0  0  0  0  0  0
    9.0166   -0.4492    3.5242 C   0  0  0  0  0  0  0  0  0  0  0  0
    8.2078   -0.7801    2.4265 C   0  0  0  0  0  0  0  0  0  0  0  0
    8.7635   -0.7519    1.0252 C   0  0  0  0  0  0  0  0  0  0  0  0
    9.3172   -2.0243    0.6283 N   0  0  0  0  0  0  0  0  0  0  0  0
   10.6549   -2.3087    0.7939 C   0  0  0  0  0  0  0  0  0  0  0  0
   11.4405   -1.5018    1.2830 O   0  0  0  0  0  0  0  0  0  0  0  0
   11.0628   -3.6397    0.3396 C   0  0  0  0  0  0  0  0  0  0  0  0
   10.5201   -4.3272   -0.7394 C   0  0  0  0  0  0  0  0  0  0  0  0
   11.2212   -5.4919   -0.9204 N   0  0  0  0  0  0  0  0  0  0  0  0
   12.1968   -5.5909    0.0340 C   0  0  0  0  0  0  0  0  0  0  0  0
   12.1173   -4.4740    0.8380 C   0  0  0  0  0  0  0  0  0  0  0  0
   12.9392   -4.2061    2.0084 C   0  0  0  0  0  0  0  0  0  0  0  0
   12.5951   -3.5382    3.1561 C   0  0  0  0  0  0  0  0  0  0  0  0
   13.7016   -3.5328    3.9725 N   0  0  0  0  0  0  0  0  0  0  0  0
   13.8109   -2.9712    5.2749 C   0  0  0  0  0  0  0  0  0  0  0  0
   12.7073   -2.3697    5.8985 C   0  0  0  0  0  0  0  0  0  0  0  0
   12.8215   -1.8778    7.2005 C   0  0  0  0  0  0  0  0  0  0  0  0
   14.0344   -1.9710    7.8804 C   0  0  0  0  0  0  0  0  0  0  0  0
   15.1414   -2.5446    7.2570 C   0  0  0  0  0  0  0  0  0  0  0  0
   15.0334   -3.0438    5.9577 C   0  0  0  0  0  0  0  0  0  0  0  0
   14.7408   -4.2054    3.4015 N   0  0  0  0  0  0  0  0  0  0  0  0
   14.2644   -4.6132    2.2217 C   0  0  0  0  0  0  0  0  0  0  0  0
    6.8738   -1.1352    2.6603 C   0  0  0  0  0  0  0  0  0  0  0  0
    6.3664   -1.1414    3.9591 C   0  0  0  0  0  0  0  0  0  0  0  0
    5.0837   -1.4891    4.1407 F   0  0  0  0  0  0  0  0  0  0  0  0
    6.2375    1.4800    8.7576 H   0  0  0  0  0  0  0  0  0  0  0  0
    6.7026   -0.2160    9.0117 H   0  0  0  0  0  0  0  0  0  0  0  0
    5.0942    0.1904    8.3292 H   0  0  0  0  0  0  0  0  0  0  0  0
    5.5438   -1.1424    6.4394 H   0  0  0  0  0  0  0  0  0  0  0  0
    7.1583   -1.5721    7.0427 H   0  0  0  0  0  0  0  0  0  0  0  0
    9.1378   -0.1717    5.6585 H   0  0  0  0  0  0  0  0  0  0  0  0
   10.0603   -0.1739    3.3690 H   0  0  0  0  0  0  0  0  0  0  0  0
    9.5214    0.0353    0.9365 H   0  0  0  0  0  0  0  0  0  0  0  0
    7.9692   -0.5067    0.3117 H   0  0  0  0  0  0  0  0  0  0  0  0
    8.6937   -2.7672    0.3520 H   0  0  0  0  0  0  0  0  0  0  0  0
    9.7260   -4.0643   -1.4248 H   0  0  0  0  0  0  0  0  0  0  0  0
   11.0515   -6.1706   -1.6524 H   0  0  0  0  0  0  0  0  0  0  0  0
   12.8487   -6.4524    0.0680 H   0  0  0  0  0  0  0  0  0  0  0  0
   11.6714   -3.0597    3.4378 H   0  0  0  0  0  0  0  0  0  0  0  0
   11.7429   -2.2797    5.4081 H   0  0  0  0  0  0  0  0  0  0  0  0
   11.9598   -1.4275    7.6865 H   0  0  0  0  0  0  0  0  0  0  0  0
   14.1175   -1.5958    8.8968 H   0  0  0  0  0  0  0  0  0  0  0  0
   16.0899   -2.6106    7.7834 H   0  0  0  0  0  0  0  0  0  0  0  0
   15.9089   -3.4904    5.4897 H   0  0  0  0  0  0  0  0  0  0  0  0
   14.9112   -5.1833    1.5681 H   0  0  0  0  0  0  0  0  0  0  0  0
    6.2118   -1.3986    1.8410 H   0  0  0  0  0  0  0  0  0  0  0  0
  1  2  1  0  0  0  0
  1 31  1  0  0  0  0
  1 32  1  0  0  0  0
  1 33  1  0  0  0  0
  2  3  1  0  0  0  0
  3  4  1  0  0  0  0
  3 34  1  0  0  0  0
  3 35  1  0  0  0  0
  4  5  2  0  0  0  0
  4 29  1  0  0  0  0
  5  6  1  0  0  0  0
  5 36  1  0  0  0  0
  6  7  2  0  0  0  0
  6 37  1  0  0  0  0
  7  8  1  0  0  0  0
  7 28  1  0  0  0  0
  8  9  1  0  0  0  0
  8 38  1  0  0  0  0
  8 39  1  0  0  0  0
  9 10  1  0  0  0  0
  9 40  1  0  0  0  0
 10 11  2  0  0  0  0
 10 12  1  0  0  0  0
 12 13  2  0  0  0  0
 12 16  1  0  0  0  0
 13 14  1  0  0  0  0
 13 41  1  0  0  0  0
 14 15  1  0  0  0  0
 14 42  1  0  0  0  0
 15 16  2  0  0  0  0
 15 43  1  0  0  0  0
 16 17  1  0  0  0  0
 17 18  2  0  0  0  0
 17 27  1  0  0  0  0
 18 19  1  0  0  0  0
 18 44  1  0  0  0  0
 19 20  1  0  0  0  0
 19 26  1  0  0  0  0
 20 21  2  0  0  0  0
 20 25  1  0  0  0  0
 21 22  1  0  0  0  0
 21 45  1  0  0  0  0
 22 23  2  0  0  0  0
 22 46  1  0  0  0  0
 23 24  1  0  0  0  0
 23 47  1  0  0  0  0
 24 25  2  0  0  0  0
 24 48  1  0  0  0  0
 25 49  1  0  0  0  0
 26 27  2  0  0  0  0
 27 50  1  0  0  0  0
 28 29  2  0  0  0  0
 28 51  1  0  0  0  0
 29 30  1  0  0  0  0
M  END
$$$$
