
 OpenBabel01122422513D

 46 48  0  0  1  0  0  0  0  0999 V2000
    1.0115    0.2632   -0.2092 O   0  0  0  0  0  0  0  0  0  0  0  0
    2.2266    0.0875   -0.1486 C   0  0  0  0  0  0  0  0  0  0  0  0
    2.9589    0.3775    0.9684 N   0  0  0  0  0  0  0  0  0  0  0  0
    2.3045    0.8598    2.1813 C   0  0  0  0  0  0  0  0  0  0  0  0
    3.2008    1.7561    3.0419 C   0  0  0  0  0  0  0  0  0  0  0  0
    4.2981    1.0349    3.4108 F   0  0  0  0  0  0  0  0  0  0  0  0
    3.6629    2.7825    2.2787 F   0  0  0  0  0  0  0  0  0  0  0  0
    2.4513    2.2938    4.2734 C   0  0  3  0  0  0  0  0  0  0  0  0
    1.9966    1.2246    5.1112 O   0  0  0  0  0  0  0  0  0  0  0  0
    3.2456    3.2880    5.1016 C   0  0  0  0  0  0  0  0  0  0  0  0
    2.7444    4.5874    5.2901 C   0  0  0  0  0  0  0  0  0  0  0  0
    3.4351    5.5155    6.0707 C   0  0  0  0  0  0  0  0  0  0  0  0
    4.6333    5.1566    6.6814 C   0  0  0  0  0  0  0  0  0  0  0  0
    5.1517    3.8775    6.4942 C   0  0  0  0  0  0  0  0  0  0  0  0
    4.4671    2.9501    5.7050 C   0  0  0  0  0  0  0  0  0  0  0  0
    2.9883   -0.4600   -1.3132 C   0  0  0  0  0  0  0  0  0  0  0  0
    2.4092   -0.3621   -2.5214 C   0  0  0  0  0  0  0  0  0  0  0  0
    2.9842   -0.8999   -3.6684 N   0  0  0  0  0  0  0  0  0  0  0  0
    2.2874   -0.8797   -4.9161 C   0  0  0  0  0  0  0  0  0  0  0  0
    2.9273   -0.4255   -6.0766 C   0  0  0  0  0  0  0  0  0  0  0  0
    2.2664   -0.4621   -7.3080 C   0  0  0  0  0  0  0  0  0  0  0  0
    0.9725   -0.9753   -7.3949 C   0  0  0  0  0  0  0  0  0  0  0  0
    0.3223   -1.4213   -6.2455 C   0  0  0  0  0  0  0  0  0  0  0  0
    0.9715   -1.3521   -5.0146 C   0  0  0  0  0  0  0  0  0  0  0  0
    0.3298   -1.8172   -3.9314 F   0  0  0  0  0  0  0  0  0  0  0  0
    4.1957   -1.6065   -3.6123 C   0  0  0  0  0  0  0  0  0  0  0  0
    4.7536   -2.1796   -4.5473 O   0  0  0  0  0  0  0  0  0  0  0  0
    4.8246   -1.7164   -2.2666 C   0  0  0  0  0  0  0  0  0  0  0  0
    4.2450   -1.1644   -1.1917 C   0  0  0  0  0  0  0  0  0  0  0  0
    3.9551    0.2425    0.9973 H   0  0  0  0  0  0  0  0  0  0  0  0
    2.0065   -0.0337    2.7445 H   0  0  0  0  0  0  0  0  0  0  0  0
    1.3993    1.4061    1.8973 H   0  0  0  0  0  0  0  0  0  0  0  0
    1.5476    2.7983    3.9141 H   0  0  0  0  0  0  0  0  0  0  0  0
    2.7767    0.8485    5.5593 H   0  0  0  0  0  0  0  0  0  0  0  0
    1.8067    4.8917    4.8276 H   0  0  0  0  0  0  0  0  0  0  0  0
    3.0344    6.5169    6.2057 H   0  0  0  0  0  0  0  0  0  0  0  0
    5.1634    5.8746    7.3022 H   0  0  0  0  0  0  0  0  0  0  0  0
    6.0914    3.6010    6.9652 H   0  0  0  0  0  0  0  0  0  0  0  0
    4.9050    1.9642    5.5680 H   0  0  0  0  0  0  0  0  0  0  0  0
    1.4592    0.1540   -2.6572 H   0  0  0  0  0  0  0  0  0  0  0  0
    3.9374   -0.0270   -6.0254 H   0  0  0  0  0  0  0  0  0  0  0  0
    2.7711   -0.1009   -8.2010 H   0  0  0  0  0  0  0  0  0  0  0  0
    0.4736   -1.0326   -8.3593 H   0  0  0  0  0  0  0  0  0  0  0  0
   -0.6779   -1.8382   -6.2997 H   0  0  0  0  0  0  0  0  0  0  0  0
    5.7409   -2.2873   -2.2071 H   0  0  0  0  0  0  0  0  0  0  0  0
    4.7078   -1.2878   -0.2201 H   0  0  0  0  0  0  0  0  0  0  0  0
  1  2  2  0  0  0  0
  2  3  1  0  0  0  0
  2 16  1  0  0  0  0
  3  4  1  0  0  0  0
  3 30  1  0  0  0  0
  4  5  1  0  0  0  0
  4 31  1  0  0  0  0
  4 32  1  0  0  0  0
  5  6  1  0  0  0  0
  5  7  1  0  0  0  0
  5  8  1  0  0  0  0
  8  9  1  0  0  0  0
  8 10  1  0  0  0  0
  8 33  1  0  0  0  0
  9 34  1  0  0  0  0
 10 11  2  0  0  0  0
 10 15  1  0  0  0  0
 11 12  1  0  0  0  0
 11 35  1  0  0  0  0
 12 13  2  0  0  0  0
 12 36  1  0  0  0  0
 13 14  1  0  0  0  0
 13 37  1  0  0  0  0
 14 15  2  0  0  0  0
 14 38  1  0  0  0  0
 15 39  1  0  0  0  0
 16 17  2  0  0  0  0
 16 29  1  0  0  0  0
 17 18  1  0  0  0  0
 17 40  1  0  0  0  0
 18 19  1  0  0  0  0
 18 26  1  0  0  0  0
 19 20  2  0  0  0  0
 19 24  1  0  0  0  0
 20 21  1  0  0  0  0
 20 41  1  0  0  0  0
 21 22  2  0  0  0  0
 21 42  1  0  0  0  0
 22 23  1  0  0  0  0
 22 43  1  0  0  0  0
 23 24  2  0  0  0  0
 23 44  1  0  0  0  0
 24 25  1  0  0  0  0
 26 27  2  0  0  0  0
 26 28  1  0  0  0  0
 28 29  2  0  0  0  0
 28 45  1  0  0  0  0
 29 46  1  0  0  0  0
M  END
$$$$
