
 OpenBabel01122422513D

 45 48  0  0  0  0  0  0  0  0999 V2000
    2.4976   -2.4607    0.0410 C   0  0  0  0  0  0  0  0  0  0  0  0
    3.0972   -1.1026    0.0784 C   0  0  0  0  0  0  0  0  0  0  0  0
    4.4266   -0.7318    0.1569 C   0  0  0  0  0  0  0  0  0  0  0  0
    4.4483    0.6642   -0.0451 C   0  0  0  0  0  0  0  0  0  0  0  0
    5.5903    1.4379   -0.0230 N   0  0  0  0  0  0  0  0  0  0  0  0
    5.6059    2.8143   -0.1630 C   0  0  0  0  0  0  0  0  0  0  0  0
    4.6497    3.5579   -0.3402 O   0  0  0  0  0  0  0  0  0  0  0  0
    6.9957    3.4560   -0.0661 C   0  0  0  0  0  0  0  0  0  0  0  0
    7.0562    4.7556   -0.2010 N   0  0  0  0  0  0  0  0  0  0  0  0
    8.2796    5.3781   -0.1494 N   0  0  0  0  0  0  0  0  0  0  0  0
    8.2373    6.8024   -0.3017 C   0  0  0  0  0  0  0  0  0  0  0  0
    7.1073    7.5293    0.1239 C   0  0  0  0  0  0  0  0  0  0  0  0
    7.0582    8.9258    0.0329 C   0  0  0  0  0  0  0  0  0  0  0  0
    8.1294    9.6299   -0.5102 C   0  0  0  0  0  0  0  0  0  0  0  0
    9.2457    8.9361   -0.9668 C   0  0  0  0  0  0  0  0  0  0  0  0
    9.2940    7.5444   -0.8609 C   0  0  0  0  0  0  0  0  0  0  0  0
   10.3836    6.9289   -1.3484 F   0  0  0  0  0  0  0  0  0  0  0  0
    9.4464    4.6822    0.1011 C   0  0  0  0  0  0  0  0  0  0  0  0
    9.5235    3.3649    0.2785 C   0  0  0  0  0  0  0  0  0  0  0  0
    8.2503    2.6471    0.1854 C   0  0  0  0  0  0  0  0  0  0  0  0
    8.1837    1.4320    0.3223 O   0  0  0  0  0  0  0  0  0  0  0  0
    3.2264    1.1218   -0.2870 N   0  0  0  0  0  0  0  0  0  0  0  0
    2.3896    0.0812   -0.0773 N   0  0  0  0  0  0  0  0  0  0  0  0
    0.9892    0.3180   -0.0299 C   0  0  0  0  0  0  0  0  0  0  0  0
    0.4532    1.3767   -0.7778 C   0  0  0  0  0  0  0  0  0  0  0  0
   -0.9144    1.6516   -0.7241 C   0  0  0  0  0  0  0  0  0  0  0  0
   -1.7453    0.8990    0.1038 C   0  0  0  0  0  0  0  0  0  0  0  0
   -1.2128   -0.1363    0.8709 C   0  0  0  0  0  0  0  0  0  0  0  0
    0.1507   -0.4345    0.8006 C   0  0  0  0  0  0  0  0  0  0  0  0
    3.2751   -3.2215   -0.0868 H   0  0  0  0  0  0  0  0  0  0  0  0
    1.8075   -2.5578   -0.8044 H   0  0  0  0  0  0  0  0  0  0  0  0
    1.9678   -2.6994    0.9657 H   0  0  0  0  0  0  0  0  0  0  0  0
    5.2681   -1.3953    0.2982 H   0  0  0  0  0  0  0  0  0  0  0  0
    6.4651    0.9476    0.1500 H   0  0  0  0  0  0  0  0  0  0  0  0
    6.2567    7.0050    0.5566 H   0  0  0  0  0  0  0  0  0  0  0  0
    6.1796    9.4580    0.3899 H   0  0  0  0  0  0  0  0  0  0  0  0
    8.0901   10.7135   -0.5842 H   0  0  0  0  0  0  0  0  0  0  0  0
   10.0821    9.4661   -1.4117 H   0  0  0  0  0  0  0  0  0  0  0  0
   10.3427    5.2872    0.1852 H   0  0  0  0  0  0  0  0  0  0  0  0
   10.4349    2.8279    0.4928 H   0  0  0  0  0  0  0  0  0  0  0  0
    1.0921    1.9826   -1.4194 H   0  0  0  0  0  0  0  0  0  0  0  0
   -1.3259    2.4624   -1.3197 H   0  0  0  0  0  0  0  0  0  0  0  0
   -2.8051    1.1321    0.1654 H   0  0  0  0  0  0  0  0  0  0  0  0
   -1.8566   -0.6975    1.5437 H   0  0  0  0  0  0  0  0  0  0  0  0
    0.5386   -1.1996    1.4634 H   0  0  0  0  0  0  0  0  0  0  0  0
  1  2  1  0  0  0  0
  1 30  1  0  0  0  0
  1 31  1  0  0  0  0
  1 32  1  0  0  0  0
  2  3  2  0  0  0  0
  2 23  1  0  0  0  0
  3  4  1  0  0  0  0
  3 33  1  0  0  0  0
  4  5  1  0  0  0  0
  4 22  2  0  0  0  0
  5  6  1  0  0  0  0
  5 34  1  0  0  0  0
  6  7  2  0  0  0  0
  6  8  1  0  0  0  0
  8  9  2  0  0  0  0
  8 20  1  0  0  0  0
  9 10  1  0  0  0  0
 10 11  1  0  0  0  0
 10 18  1  0  0  0  0
 11 12  2  0  0  0  0
 11 16  1  0  0  0  0
 12 13  1  0  0  0  0
 12 35  1  0  0  0  0
 13 14  2  0  0  0  0
 13 36  1  0  0  0  0
 14 15  1  0  0  0  0
 14 37  1  0  0  0  0
 15 16  2  0  0  0  0
 15 38  1  0  0  0  0
 16 17  1  0  0  0  0
 18 19  2  0  0  0  0
 18 39  1  0  0  0  0
 19 20  1  0  0  0  0
 19 40  1  0  0  0  0
 20 21  2  0  0  0  0
 22 23  1  0  0  0  0
 23 24  1  0  0  0  0
 24 25  2  0  0  0  0
 24 29  1  0  0  0  0
 25 26  1  0  0  0  0
 25 41  1  0  0  0  0
 26 27  2  0  0  0  0
 26 42  1  0  0  0  0
 27 28  1  0  0  0  0
 27 43  1  0  0  0  0
 28 29  2  0  0  0  0
 28 44  1  0  0  0  0
 29 45  1  0  0  0  0
M  END
$$$$
