
 OpenBabel01122422513D

 55 58  0  0  0  0  0  0  0  0999 V2000
    1.3955    0.2724    1.0084 C   0  0  0  0  0  0  0  0  0  0  0  0
    2.4319   -0.0312   -0.0409 C   0  0  0  0  0  0  0  0  0  0  0  0
    2.4691    0.7083   -1.1630 C   0  0  0  0  0  0  0  0  0  0  0  0
    3.4320    0.4535   -2.1901 C   0  0  0  0  0  0  0  0  0  0  0  0
    4.2410   -0.6065   -2.1022 C   0  0  0  0  0  0  0  0  0  0  0  0
    4.1567   -1.5148   -0.9311 C   0  0  0  0  0  0  0  0  0  0  0  0
    4.8660   -2.6062   -0.9470 N   0  0  0  0  0  0  0  0  0  0  0  0
    4.7986   -3.4250    0.1531 C   0  0  0  0  0  0  0  0  0  0  0  0
    5.4677   -4.7875    0.0755 C   0  0  0  0  0  0  0  0  0  0  0  0
    4.5017   -5.9025   -0.1721 N   0  0  0  0  0  0  0  0  0  0  0  0
    3.9769   -5.7609   -1.5667 C   0  0  0  0  0  0  0  0  0  0  0  0
    2.9919   -6.8576   -1.9832 C   0  0  0  0  0  0  0  0  0  0  0  0
    2.0585   -7.2299   -1.0621 N   0  0  0  0  0  0  0  0  0  0  0  0
    2.9824   -7.3503   -3.1085 O   0  0  0  0  0  0  0  0  0  0  0  0
    5.2027   -7.2009   -0.0292 C   0  0  0  0  0  0  0  0  0  0  0  0
    5.6975   -7.5002    1.3751 C   0  0  0  0  0  0  0  0  0  0  0  0
    4.8117   -7.5725    2.4541 C   0  0  0  0  0  0  0  0  0  0  0  0
    5.2750   -7.9100    3.7329 C   0  0  0  0  0  0  0  0  0  0  0  0
    6.6315   -8.1934    3.9798 C   0  0  0  0  0  0  0  0  0  0  0  0
    7.0986   -8.5753    5.3329 C   0  0  0  0  0  0  0  0  0  0  0  0
    6.3162   -9.3975    6.1660 C   0  0  0  0  0  0  0  0  0  0  0  0
    6.7183   -9.7188    7.4662 C   0  0  0  0  0  0  0  0  0  0  0  0
    7.9249   -9.2357    7.9602 C   0  0  0  0  0  0  0  0  0  0  0  0
    8.7336   -8.4451    7.1493 C   0  0  0  0  0  0  0  0  0  0  0  0
    8.3250   -8.1203    5.8501 C   0  0  0  0  0  0  0  0  0  0  0  0
    7.5121   -8.0989    2.8883 C   0  0  0  0  0  0  0  0  0  0  0  0
    7.0531   -7.7598    1.6073 C   0  0  0  0  0  0  0  0  0  0  0  0
    4.1809   -3.0706    1.2812 C   0  0  0  0  0  0  0  0  0  0  0  0
    3.3605   -1.8555    1.3024 C   0  0  0  0  0  0  0  0  0  0  0  0
    2.7829   -1.6028    2.3603 O   0  0  0  0  0  0  0  0  0  0  0  0
    3.3104   -1.1288    0.1149 N   0  0  0  0  0  0  0  0  0  0  0  0
    0.7665    1.1234    0.7255 H   0  0  0  0  0  0  0  0  0  0  0  0
    1.8619    0.5392    1.9608 H   0  0  0  0  0  0  0  0  0  0  0  0
    0.7258   -0.5838    1.1473 H   0  0  0  0  0  0  0  0  0  0  0  0
    1.7712    1.5287   -1.3224 H   0  0  0  0  0  0  0  0  0  0  0  0
    3.4892    1.1407   -3.0296 H   0  0  0  0  0  0  0  0  0  0  0  0
    4.9925   -0.8222   -2.8538 H   0  0  0  0  0  0  0  0  0  0  0  0
    5.9732   -4.9395    1.0383 H   0  0  0  0  0  0  0  0  0  0  0  0
    6.2668   -4.7801   -0.6782 H   0  0  0  0  0  0  0  0  0  0  0  0
    4.8010   -5.7618   -2.2900 H   0  0  0  0  0  0  0  0  0  0  0  0
    3.4212   -4.8223   -1.6722 H   0  0  0  0  0  0  0  0  0  0  0  0
    2.0550   -6.8383   -0.1301 H   0  0  0  0  0  0  0  0  0  0  0  0
    1.3915   -7.9452   -1.3185 H   0  0  0  0  0  0  0  0  0  0  0  0
    6.0369   -7.2618   -0.7389 H   0  0  0  0  0  0  0  0  0  0  0  0
    4.5276   -8.0299   -0.2755 H   0  0  0  0  0  0  0  0  0  0  0  0
    3.7526   -7.3725    2.3091 H   0  0  0  0  0  0  0  0  0  0  0  0
    4.5540   -7.9468    4.5464 H   0  0  0  0  0  0  0  0  0  0  0  0
    5.3732   -9.8040    5.8064 H   0  0  0  0  0  0  0  0  0  0  0  0
    6.0841  -10.3429    8.0903 H   0  0  0  0  0  0  0  0  0  0  0  0
    8.2337   -9.4748    8.9744 H   0  0  0  0  0  0  0  0  0  0  0  0
    9.6798   -8.0690    7.5300 H   0  0  0  0  0  0  0  0  0  0  0  0
    8.9732   -7.4833    5.2524 H   0  0  0  0  0  0  0  0  0  0  0  0
    8.5718   -8.3117    3.0156 H   0  0  0  0  0  0  0  0  0  0  0  0
    7.7695   -7.7133    0.7895 H   0  0  0  0  0  0  0  0  0  0  0  0
    4.1776   -3.6871    2.1692 H   0  0  0  0  0  0  0  0  0  0  0  0
  1  2  1  0  0  0  0
  1 32  1  0  0  0  0
  1 33  1  0  0  0  0
  1 34  1  0  0  0  0
  2  3  2  0  0  0  0
  2 31  1  0  0  0  0
  3  4  1  0  0  0  0
  3 35  1  0  0  0  0
  4  5  2  0  0  0  0
  4 36  1  0  0  0  0
  5  6  1  0  0  0  0
  5 37  1  0  0  0  0
  6  7  2  0  0  0  0
  6 31  1  0  0  0  0
  7  8  1  0  0  0  0
  8  9  1  0  0  0  0
  8 28  2  0  0  0  0
  9 10  1  0  0  0  0
  9 38  1  0  0  0  0
  9 39  1  0  0  0  0
 10 11  1  0  0  0  0
 10 15  1  0  0  0  0
 11 12  1  0  0  0  0
 11 40  1  0  0  0  0
 11 41  1  0  0  0  0
 12 13  1  0  0  0  0
 12 14  2  0  0  0  0
 13 42  1  0  0  0  0
 13 43  1  0  0  0  0
 15 16  1  0  0  0  0
 15 44  1  0  0  0  0
 15 45  1  0  0  0  0
 16 17  2  0  0  0  0
 16 27  1  0  0  0  0
 17 18  1  0  0  0  0
 17 46  1  0  0  0  0
 18 19  2  0  0  0  0
 18 47  1  0  0  0  0
 19 20  1  0  0  0  0
 19 26  1  0  0  0  0
 20 21  2  0  0  0  0
 20 25  1  0  0  0  0
 21 22  1  0  0  0  0
 21 48  1  0  0  0  0
 22 23  2  0  0  0  0
 22 49  1  0  0  0  0
 23 24  1  0  0  0  0
 23 50  1  0  0  0  0
 24 25  2  0  0  0  0
 24 51  1  0  0  0  0
 25 52  1  0  0  0  0
 26 27  2  0  0  0  0
 26 53  1  0  0  0  0
 27 54  1  0  0  0  0
 28 29  1  0  0  0  0
 28 55  1  0  0  0  0
 29 30  2  0  0  0  0
 29 31  1  0  0  0  0
M  END
$$$$
