
 OpenBabel01122422513D

 44 47  0  0  0  0  0  0  0  0999 V2000
   -2.9804   -0.4880   -0.9232 N   0  0  0  0  0  0  0  0  0  0  0  0
   -1.8619   -0.4242   -0.6316 C   0  0  0  0  0  0  0  0  0  0  0  0
   -0.4564   -0.3549   -0.3135 C   0  0  0  0  0  0  0  0  0  0  0  0
    0.3960    0.0159   -1.3729 C   0  0  0  0  0  0  0  0  0  0  0  0
    1.7663    0.1757   -1.1727 C   0  0  0  0  0  0  0  0  0  0  0  0
    2.3014   -0.0290    0.0918 C   0  0  0  0  0  0  0  0  0  0  0  0
    3.7212    0.0971    0.2705 N   0  0  0  0  0  0  0  0  0  0  0  0
    4.5362   -1.3970    0.2705 S   0  0  0  0  0  0  0  0  0  0  0  0
    4.4301   -1.9103    1.6182 O   0  0  0  0  0  0  0  0  0  0  0  0
    4.1207   -2.1305   -0.9002 O   0  0  0  0  0  0  0  0  0  0  0  0
    6.2489   -1.1092    0.0157 C   0  0  0  0  0  0  0  0  0  0  0  0
    6.9339    0.0870   -0.1582 C   0  0  0  0  0  0  0  0  0  0  0  0
    8.2666   -0.2605   -0.3658 C   0  0  0  0  0  0  0  0  0  0  0  0
    8.4362   -1.5740   -0.4017 N   0  0  0  0  0  0  0  0  0  0  0  0
    7.1978   -2.1200   -0.1675 N   0  0  0  0  0  0  0  0  0  0  0  0
    7.1079   -3.5541   -0.1929 C   0  0  0  0  0  0  0  0  0  0  0  0
    6.0771   -4.2792    0.4089 C   0  0  0  0  0  0  0  0  0  0  0  0
    6.0257   -5.6752    0.3202 C   0  0  0  0  0  0  0  0  0  0  0  0
    7.0148   -6.3735   -0.3594 C   0  0  0  0  0  0  0  0  0  0  0  0
    8.0677   -5.6762   -0.9407 C   0  0  0  0  0  0  0  0  0  0  0  0
    8.1203   -4.2801   -0.8515 C   0  0  0  0  0  0  0  0  0  0  0  0
    1.4746   -0.4608    1.1361 C   0  0  0  0  0  0  0  0  0  0  0  0
    0.0706   -0.6297    0.9747 C   0  0  0  0  0  0  0  0  0  0  0  0
   -0.7530   -1.0720    2.1439 C   0  0  0  0  0  0  0  0  0  0  0  0
   -0.4406   -0.6674    3.4536 C   0  0  0  0  0  0  0  0  0  0  0  0
   -1.2202   -1.0994    4.5201 C   0  0  0  0  0  0  0  0  0  0  0  0
   -2.3063   -1.8823    4.3867 N   0  0  0  0  0  0  0  0  0  0  0  0
   -2.6066   -2.2724    3.1349 C   0  0  0  0  0  0  0  0  0  0  0  0
   -1.8613   -1.9238    2.0150 C   0  0  0  0  0  0  0  0  0  0  0  0
   -0.0071    0.1792   -2.3717 H   0  0  0  0  0  0  0  0  0  0  0  0
    2.4024    0.4352   -2.0133 H   0  0  0  0  0  0  0  0  0  0  0  0
    4.1515    0.7625   -0.3656 H   0  0  0  0  0  0  0  0  0  0  0  0
    6.5192    1.0842   -0.1402 H   0  0  0  0  0  0  0  0  0  0  0  0
    9.1259    0.3833   -0.5130 H   0  0  0  0  0  0  0  0  0  0  0  0
    5.3034   -3.8338    1.0110 H   0  0  0  0  0  0  0  0  0  0  0  0
    5.2080   -6.2100    0.7985 H   0  0  0  0  0  0  0  0  0  0  0  0
    6.9676   -7.4567   -0.4235 H   0  0  0  0  0  0  0  0  0  0  0  0
    8.8495   -6.2162   -1.4678 H   0  0  0  0  0  0  0  0  0  0  0  0
    8.9559   -3.7709   -1.3301 H   0  0  0  0  0  0  0  0  0  0  0  0
    1.9429   -0.6835    2.0958 H   0  0  0  0  0  0  0  0  0  0  0  0
    0.4020   -0.0178    3.6679 H   0  0  0  0  0  0  0  0  0  0  0  0
   -0.9807   -0.8144    5.5409 H   0  0  0  0  0  0  0  0  0  0  0  0
   -3.4901   -2.8986    3.0418 H   0  0  0  0  0  0  0  0  0  0  0  0
   -2.1719   -2.3385    1.0625 H   0  0  0  0  0  0  0  0  0  0  0  0
  1  2  3  0  0  0  0
  2  3  1  0  0  0  0
  3  4  2  0  0  0  0
  3 23  1  0  0  0  0
  4  5  1  0  0  0  0
  4 30  1  0  0  0  0
  5  6  2  0  0  0  0
  5 31  1  0  0  0  0
  6  7  1  0  0  0  0
  6 22  1  0  0  0  0
  7  8  1  0  0  0  0
  7 32  1  0  0  0  0
  8  9  2  0  0  0  0
  8 10  2  0  0  0  0
  8 11  1  0  0  0  0
 11 12  2  0  0  0  0
 11 15  1  0  0  0  0
 12 13  1  0  0  0  0
 12 33  1  0  0  0  0
 13 14  2  0  0  0  0
 13 34  1  0  0  0  0
 14 15  1  0  0  0  0
 15 16  1  0  0  0  0
 16 17  2  0  0  0  0
 16 21  1  0  0  0  0
 17 18  1  0  0  0  0
 17 35  1  0  0  0  0
 18 19  2  0  0  0  0
 18 36  1  0  0  0  0
 19 20  1  0  0  0  0
 19 37  1  0  0  0  0
 20 21  2  0  0  0  0
 20 38  1  0  0  0  0
 21 39  1  0  0  0  0
 22 23  2  0  0  0  0
 22 40  1  0  0  0  0
 23 24  1  0  0  0  0
 24 25  2  0  0  0  0
 24 29  1  0  0  0  0
 25 26  1  0  0  0  0
 25 41  1  0  0  0  0
 26 27  2  0  0  0  0
 26 42  1  0  0  0  0
 27 28  1  0  0  0  0
 28 29  2  0  0  0  0
 28 43  1  0  0  0  0
 29 44  1  0  0  0  0
M  END
$$$$
