
 OpenBabel01122422513D

 48 51  0  0  0  0  0  0  0  0999 V2000
    1.4918   -1.0649    1.2712 C   0  0  0  0  0  0  0  0  0  0  0  0
    2.5976   -0.4429    0.5055 C   0  0  0  0  0  0  0  0  0  0  0  0
    3.6579    0.2880    1.0092 C   0  0  0  0  0  0  0  0  0  0  0  0
    4.4698    0.7042   -0.0290 N   0  0  0  0  0  0  0  0  0  0  0  0
    5.6765    1.4570    0.0811 C   0  0  0  0  0  0  0  0  0  0  0  0
    6.1937    1.8131    1.3387 C   0  0  0  0  0  0  0  0  0  0  0  0
    7.4101    2.4967    1.4437 C   0  0  0  0  0  0  0  0  0  0  0  0
    8.1084    2.8394    0.2876 C   0  0  0  0  0  0  0  0  0  0  0  0
    9.4430    3.4705    0.3052 C   0  0  0  0  0  0  0  0  0  0  0  0
   10.1925    3.1538   -0.6142 O   0  0  0  0  0  0  0  0  0  0  0  0
    9.7418    4.3272    1.3576 N   0  0  0  0  0  0  0  0  0  0  0  0
   10.9394    5.0742    1.4506 C   0  0  0  0  0  0  0  0  0  0  0  0
   11.7512    5.2832    0.3349 C   0  0  0  0  0  0  0  0  0  0  0  0
   12.9391    6.0048    0.3971 C   0  0  0  0  0  0  0  0  0  0  0  0
   13.7176    6.2488   -0.7588 N   0  0  0  0  0  0  0  0  0  0  0  0
   13.2470    6.1520   -2.0585 C   0  0  0  0  0  0  0  0  0  0  0  0
   12.0995    5.9071   -2.4223 O   0  0  0  0  0  0  0  0  0  0  0  0
   14.2219    6.4993   -3.1163 C   0  0  0  0  0  0  0  0  0  0  0  0
   15.5446    6.5663   -3.1453 C   0  0  0  0  0  0  0  0  0  0  0  0
   16.0621    6.9129   -4.3982 O   0  0  0  0  0  0  0  0  0  0  0  0
   14.9016    7.0295   -5.1578 C   0  0  0  0  0  0  0  0  0  0  0  0
   14.8796    7.3133   -6.3447 O   0  0  0  0  0  0  0  0  0  0  0  0
   13.8094    6.7827   -4.3748 N   0  0  0  0  0  0  0  0  0  0  0  0
   13.3530    6.4982    1.6328 C   0  0  0  0  0  0  0  0  0  0  0  0
   12.5355    6.3313    2.7601 C   0  0  0  0  0  0  0  0  0  0  0  0
   11.3204    5.6385    2.6661 C   0  0  0  0  0  0  0  0  0  0  0  0
    7.5892    2.4989   -0.9678 C   0  0  0  0  0  0  0  0  0  0  0  0
    6.3803    1.8191   -1.0737 C   0  0  0  0  0  0  0  0  0  0  0  0
    3.9027    0.2338   -1.1971 C   0  0  0  0  0  0  0  0  0  0  0  0
    2.7698   -0.4862   -0.8954 C   0  0  0  0  0  0  0  0  0  0  0  0
    1.5688   -0.8424    2.3402 H   0  0  0  0  0  0  0  0  0  0  0  0
    1.5082   -2.1516    1.1442 H   0  0  0  0  0  0  0  0  0  0  0  0
    0.5297   -0.6873    0.9117 H   0  0  0  0  0  0  0  0  0  0  0  0
    3.8798    0.5335    2.0370 H   0  0  0  0  0  0  0  0  0  0  0  0
    5.6930    1.5455    2.2634 H   0  0  0  0  0  0  0  0  0  0  0  0
    7.8134    2.6991    2.4308 H   0  0  0  0  0  0  0  0  0  0  0  0
    9.0874    4.4182    2.1210 H   0  0  0  0  0  0  0  0  0  0  0  0
   11.4454    4.8768   -0.6172 H   0  0  0  0  0  0  0  0  0  0  0  0
   14.6337    6.6451   -0.6075 H   0  0  0  0  0  0  0  0  0  0  0  0
   16.2785    6.3775   -2.3837 H   0  0  0  0  0  0  0  0  0  0  0  0
   12.8499    6.7714   -4.6825 H   0  0  0  0  0  0  0  0  0  0  0  0
   14.2824    7.0510    1.7332 H   0  0  0  0  0  0  0  0  0  0  0  0
   12.8480    6.7438    3.7170 H   0  0  0  0  0  0  0  0  0  0  0  0
   10.7099    5.5195    3.5568 H   0  0  0  0  0  0  0  0  0  0  0  0
    8.1420    2.7412   -1.8761 H   0  0  0  0  0  0  0  0  0  0  0  0
    6.0384    1.5771   -2.0744 H   0  0  0  0  0  0  0  0  0  0  0  0
    4.3402    0.4199   -2.1656 H   0  0  0  0  0  0  0  0  0  0  0  0
    2.1367   -0.9848   -1.6175 H   0  0  0  0  0  0  0  0  0  0  0  0
  1  2  1  0  0  0  0
  1 31  1  0  0  0  0
  1 32  1  0  0  0  0
  1 33  1  0  0  0  0
  2  3  2  0  0  0  0
  2 30  1  0  0  0  0
  3  4  1  0  0  0  0
  3 34  1  0  0  0  0
  4  5  1  0  0  0  0
  4 29  1  0  0  0  0
  5  6  2  0  0  0  0
  5 28  1  0  0  0  0
  6  7  1  0  0  0  0
  6 35  1  0  0  0  0
  7  8  2  0  0  0  0
  7 36  1  0  0  0  0
  8  9  1  0  0  0  0
  8 27  1  0  0  0  0
  9 10  2  0  0  0  0
  9 11  1  0  0  0  0
 11 12  1  0  0  0  0
 11 37  1  0  0  0  0
 12 13  2  0  0  0  0
 12 26  1  0  0  0  0
 13 14  1  0  0  0  0
 13 38  1  0  0  0  0
 14 15  1  0  0  0  0
 14 24  2  0  0  0  0
 15 16  1  0  0  0  0
 15 39  1  0  0  0  0
 16 17  2  0  0  0  0
 16 18  1  0  0  0  0
 18 19  2  0  0  0  0
 18 23  1  0  0  0  0
 19 20  1  0  0  0  0
 19 40  1  0  0  0  0
 20 21  1  0  0  0  0
 21 22  2  0  0  0  0
 21 23  1  0  0  0  0
 23 41  1  0  0  0  0
 24 25  1  0  0  0  0
 24 42  1  0  0  0  0
 25 26  2  0  0  0  0
 25 43  1  0  0  0  0
 26 44  1  0  0  0  0
 27 28  2  0  0  0  0
 27 45  1  0  0  0  0
 28 46  1  0  0  0  0
 29 30  2  0  0  0  0
 29 47  1  0  0  0  0
 30 48  1  0  0  0  0
M  END
$$$$
