
 OpenBabel01122422513D

 57 60  0  0  0  0  0  0  0  0999 V2000
    1.1510   -5.2442   -2.3915 C   0  0  0  0  0  0  0  0  0  0  0  0
    2.5655   -5.1404   -2.0948 N   0  0  0  0  0  0  0  0  0  0  0  0
    3.2954   -6.3099   -1.9210 C   0  0  0  0  0  0  0  0  0  0  0  0
    2.8453   -7.4374   -2.0551 O   0  0  0  0  0  0  0  0  0  0  0  0
    4.6169   -6.1518   -1.5784 N   0  0  0  0  0  0  0  0  0  0  0  0
    5.2441   -4.9199   -1.4308 C   0  0  0  0  0  0  0  0  0  0  0  0
    6.5893   -4.8522   -1.0651 C   0  0  0  0  0  0  0  0  0  0  0  0
    7.2459   -3.6052   -0.9663 C   0  0  0  0  0  0  0  0  0  0  0  0
    8.7179   -3.6138   -0.7186 C   0  0  0  0  0  0  0  0  0  0  0  0
    9.3087   -4.6878   -0.8126 O   0  0  0  0  0  0  0  0  0  0  0  0
    9.3458   -2.4173   -0.3918 N   0  0  0  0  0  0  0  0  0  0  0  0
   10.7627   -2.2891   -0.4000 C   0  0  0  0  0  0  0  0  0  0  0  0
   11.5123   -2.8908   -1.4189 C   0  0  0  0  0  0  0  0  0  0  0  0
   12.9001   -2.7697   -1.4400 C   0  0  0  0  0  0  0  0  0  0  0  0
   13.5021   -2.0196   -0.4497 C   0  0  0  0  0  0  0  0  0  0  0  0
   12.8222   -1.3900    0.5261 N   0  0  0  0  0  0  0  0  0  0  0  0
   11.4712   -1.5621    0.5663 C   0  0  0  0  0  0  0  0  0  0  0  0
   10.7932   -1.0716    1.6907 O   0  0  0  0  0  0  0  0  0  0  0  0
   11.4857   -1.1156    2.9015 C   0  0  0  0  0  0  0  0  0  0  0  0
   12.2599   -2.2573    3.2149 C   0  0  0  0  0  0  0  0  0  0  0  0
   13.0042   -2.3307    4.3885 C   0  0  0  0  0  0  0  0  0  0  0  0
   12.9369   -1.2927    5.2981 C   0  0  0  0  0  0  0  0  0  0  0  0
   12.1293   -0.1824    5.0299 C   0  0  0  0  0  0  0  0  0  0  0  0
   11.3836   -0.0483    3.8316 C   0  0  0  0  0  0  0  0  0  0  0  0
   10.5602    1.2384    3.5845 C   0  0  0  0  0  0  0  0  0  0  0  0
   10.6402    2.2640    4.7528 C   0  0  0  0  0  0  0  0  0  0  0  0
   11.0825    1.9794    2.3367 C   0  0  0  0  0  0  0  0  0  0  0  0
    9.0606    0.9215    3.4092 C   0  0  0  0  0  0  0  0  0  0  0  0
    6.5201   -2.4331   -1.2160 C   0  0  0  0  0  0  0  0  0  0  0  0
    5.1605   -2.5056   -1.5643 C   0  0  0  0  0  0  0  0  0  0  0  0
    4.5306   -3.7531   -1.6709 C   0  0  0  0  0  0  0  0  0  0  0  0
    3.1073   -3.8588   -2.0543 C   0  0  0  0  0  0  0  0  0  0  0  0
    2.4803   -2.8358   -2.3093 O   0  0  0  0  0  0  0  0  0  0  0  0
    0.7853   -6.2756   -2.3492 H   0  0  0  0  0  0  0  0  0  0  0  0
    0.9617   -4.8324   -3.3855 H   0  0  0  0  0  0  0  0  0  0  0  0
    0.5938   -4.6440   -1.6575 H   0  0  0  0  0  0  0  0  0  0  0  0
    5.1279   -7.0158   -1.4496 H   0  0  0  0  0  0  0  0  0  0  0  0
    7.1500   -5.7664   -0.8859 H   0  0  0  0  0  0  0  0  0  0  0  0
    8.8254   -1.7187    0.1278 H   0  0  0  0  0  0  0  0  0  0  0  0
   11.0288   -3.4534   -2.2118 H   0  0  0  0  0  0  0  0  0  0  0  0
   13.4934   -3.2492   -2.2140 H   0  0  0  0  0  0  0  0  0  0  0  0
   14.5842   -1.9141   -0.4027 H   0  0  0  0  0  0  0  0  0  0  0  0
   12.3291   -3.0884    2.5184 H   0  0  0  0  0  0  0  0  0  0  0  0
   13.6396   -3.1906    4.5797 H   0  0  0  0  0  0  0  0  0  0  0  0
   13.5131   -1.3342    6.2182 H   0  0  0  0  0  0  0  0  0  0  0  0
   12.1211    0.5889    5.7947 H   0  0  0  0  0  0  0  0  0  0  0  0
   11.6723    2.5804    4.9477 H   0  0  0  0  0  0  0  0  0  0  0  0
   10.2277    1.8518    5.6822 H   0  0  0  0  0  0  0  0  0  0  0  0
   10.0704    3.1731    4.5266 H   0  0  0  0  0  0  0  0  0  0  0  0
   12.1174    2.3109    2.4822 H   0  0  0  0  0  0  0  0  0  0  0  0
   10.4767    2.8696    2.1287 H   0  0  0  0  0  0  0  0  0  0  0  0
   11.0581    1.3641    1.4346 H   0  0  0  0  0  0  0  0  0  0  0  0
    8.6438    0.4659    4.3155 H   0  0  0  0  0  0  0  0  0  0  0  0
    8.8624    0.2442    2.5750 H   0  0  0  0  0  0  0  0  0  0  0  0
    8.4911    1.8401    3.2166 H   0  0  0  0  0  0  0  0  0  0  0  0
    6.9916   -1.4554   -1.1877 H   0  0  0  0  0  0  0  0  0  0  0  0
    4.6062   -1.5966   -1.7731 H   0  0  0  0  0  0  0  0  0  0  0  0
  1  2  1  0  0  0  0
  1 34  1  0  0  0  0
  1 35  1  0  0  0  0
  1 36  1  0  0  0  0
  2  3  1  0  0  0  0
  2 32  1  0  0  0  0
  3  4  2  0  0  0  0
  3  5  1  0  0  0  0
  5  6  1  0  0  0  0
  5 37  1  0  0  0  0
  6  7  2  0  0  0  0
  6 31  1  0  0  0  0
  7  8  1  0  0  0  0
  7 38  1  0  0  0  0
  8  9  1  0  0  0  0
  8 29  2  0  0  0  0
  9 10  2  0  0  0  0
  9 11  1  0  0  0  0
 11 12  1  0  0  0  0
 11 39  1  0  0  0  0
 12 13  2  0  0  0  0
 12 17  1  0  0  0  0
 13 14  1  0  0  0  0
 13 40  1  0  0  0  0
 14 15  2  0  0  0  0
 14 41  1  0  0  0  0
 15 16  1  0  0  0  0
 15 42  1  0  0  0  0
 16 17  2  0  0  0  0
 17 18  1  0  0  0  0
 18 19  1  0  0  0  0
 19 20  2  0  0  0  0
 19 24  1  0  0  0  0
 20 21  1  0  0  0  0
 20 43  1  0  0  0  0
 21 22  2  0  0  0  0
 21 44  1  0  0  0  0
 22 23  1  0  0  0  0
 22 45  1  0  0  0  0
 23 24  2  0  0  0  0
 23 46  1  0  0  0  0
 24 25  1  0  0  0  0
 25 26  1  0  0  0  0
 25 27  1  0  0  0  0
 25 28  1  0  0  0  0
 26 47  1  0  0  0  0
 26 48  1  0  0  0  0
 26 49  1  0  0  0  0
 27 50  1  0  0  0  0
 27 51  1  0  0  0  0
 27 52  1  0  0  0  0
 28 53  1  0  0  0  0
 28 54  1  0  0  0  0
 28 55  1  0  0  0  0
 29 30  1  0  0  0  0
 29 56  1  0  0  0  0
 30 31  2  0  0  0  0
 30 57  1  0  0  0  0
 31 32  1  0  0  0  0
 32 33  2  0  0  0  0
M  END
$$$$
