
 OpenBabel01122422513D

 44 47  0  0  0  0  0  0  0  0999 V2000
    3.1284    0.8770   -0.5239 O   0  0  0  0  0  0  0  0  0  0  0  0
    3.5819   -0.2274    0.2896 S   0  0  0  0  0  0  0  0  0  0  0  0
    4.8714   -0.8449    0.0787 O   0  0  0  0  0  0  0  0  0  0  0  0
    3.6073    0.2762    1.8822 N   0  0  0  0  0  0  0  0  0  0  0  0
    2.8694    1.5133    2.1878 C   0  0  0  0  0  0  0  0  0  0  0  0
    3.1245    1.9094    3.6187 C   0  0  0  0  0  0  0  0  0  0  0  0
    3.6473    3.1578    3.9639 C   0  0  0  0  0  0  0  0  0  0  0  0
    3.9142    3.4492    5.2991 C   0  0  0  0  0  0  0  0  0  0  0  0
    3.6548    2.5004    6.2950 C   0  0  0  0  0  0  0  0  0  0  0  0
    3.0994    1.2479    5.9855 C   0  0  0  0  0  0  0  0  0  0  0  0
    2.7398    0.2580    7.0187 C   0  0  0  0  0  0  0  0  0  0  0  0
    2.2806    0.6397    8.2848 C   0  0  0  0  0  0  0  0  0  0  0  0
    1.8466   -0.3166    9.2019 C   0  0  0  0  0  0  0  0  0  0  0  0
    1.8810   -1.6486    8.8316 C   0  0  0  0  0  0  0  0  0  0  0  0
    2.3371   -2.0780    7.6399 N   0  0  0  0  0  0  0  0  0  0  0  0
    2.7579   -1.1232    6.7759 C   0  0  0  0  0  0  0  0  0  0  0  0
    2.8464    0.9804    4.6322 C   0  0  0  0  0  0  0  0  0  0  0  0
    2.3986   -1.5052    0.1351 C   0  0  0  0  0  0  0  0  0  0  0  0
    1.6632   -2.1450    1.1383 C   0  0  0  0  0  0  0  0  0  0  0  0
    0.8866   -3.2861    0.7766 C   0  0  0  0  0  0  0  0  0  0  0  0
    0.2572   -4.1564    1.7019 C   0  0  0  0  0  0  0  0  0  0  0  0
   -0.3718   -5.3143    1.2477 C   0  0  0  0  0  0  0  0  0  0  0  0
   -0.8364   -6.2057    2.1294 F   0  0  0  0  0  0  0  0  0  0  0  0
   -0.4930   -5.5835   -0.1120 C   0  0  0  0  0  0  0  0  0  0  0  0
    0.0723   -4.7060   -1.0205 C   0  0  0  0  0  0  0  0  0  0  0  0
    0.7972   -3.6107   -0.5985 C   0  0  0  0  0  0  0  0  0  0  0  0
    1.4475   -2.9454   -1.5554 N   0  0  0  0  0  0  0  0  0  0  0  0
    2.2646   -1.9521   -1.1673 C   0  0  0  0  0  0  0  0  0  0  0  0
    4.5816    0.2964    2.1979 H   0  0  0  0  0  0  0  0  0  0  0  0
    1.7965    1.3484    2.0449 H   0  0  0  0  0  0  0  0  0  0  0  0
    3.1962    2.3259    1.5297 H   0  0  0  0  0  0  0  0  0  0  0  0
    3.8543    3.9070    3.2025 H   0  0  0  0  0  0  0  0  0  0  0  0
    4.3259    4.4184    5.5715 H   0  0  0  0  0  0  0  0  0  0  0  0
    3.8933    2.7611    7.3237 H   0  0  0  0  0  0  0  0  0  0  0  0
    2.2215    1.6891    8.5601 H   0  0  0  0  0  0  0  0  0  0  0  0
    1.4727   -0.0212   10.1745 H   0  0  0  0  0  0  0  0  0  0  0  0
    1.5278   -2.4267    9.5014 H   0  0  0  0  0  0  0  0  0  0  0  0
    3.1188   -1.5255    5.8330 H   0  0  0  0  0  0  0  0  0  0  0  0
    2.4143    0.0263    4.3345 H   0  0  0  0  0  0  0  0  0  0  0  0
    1.7264   -1.8225    2.1740 H   0  0  0  0  0  0  0  0  0  0  0  0
    0.3155   -3.9853    2.7734 H   0  0  0  0  0  0  0  0  0  0  0  0
   -0.9726   -6.4954   -0.4512 H   0  0  0  0  0  0  0  0  0  0  0  0
   -0.0036   -4.9056   -2.0879 H   0  0  0  0  0  0  0  0  0  0  0  0
    2.8776   -1.5424   -1.9690 H   0  0  0  0  0  0  0  0  0  0  0  0
  1  2  2  0  0  0  0
  2  3  2  0  0  0  0
  2  4  1  0  0  0  0
  2 18  1  0  0  0  0
  4  5  1  0  0  0  0
  4 29  1  0  0  0  0
  5  6  1  0  0  0  0
  5 30  1  0  0  0  0
  5 31  1  0  0  0  0
  6  7  2  0  0  0  0
  6 17  1  0  0  0  0
  7  8  1  0  0  0  0
  7 32  1  0  0  0  0
  8  9  2  0  0  0  0
  8 33  1  0  0  0  0
  9 10  1  0  0  0  0
  9 34  1  0  0  0  0
 10 11  1  0  0  0  0
 10 17  2  0  0  0  0
 11 12  2  0  0  0  0
 11 16  1  0  0  0  0
 12 13  1  0  0  0  0
 12 35  1  0  0  0  0
 13 14  2  0  0  0  0
 13 36  1  0  0  0  0
 14 15  1  0  0  0  0
 14 37  1  0  0  0  0
 15 16  2  0  0  0  0
 16 38  1  0  0  0  0
 17 39  1  0  0  0  0
 18 19  2  0  0  0  0
 18 28  1  0  0  0  0
 19 20  1  0  0  0  0
 19 40  1  0  0  0  0
 20 21  2  0  0  0  0
 20 26  1  0  0  0  0
 21 22  1  0  0  0  0
 21 41  1  0  0  0  0
 22 23  1  0  0  0  0
 22 24  2  0  0  0  0
 24 25  1  0  0  0  0
 24 42  1  0  0  0  0
 25 26  2  0  0  0  0
 25 43  1  0  0  0  0
 26 27  1  0  0  0  0
 27 28  2  0  0  0  0
 28 44  1  0  0  0  0
M  END
$$$$
