
 OpenBabel01122422513D

 47 50  0  0  0  0  0  0  0  0999 V2000
    4.7404   -0.3167   -2.3141 O   0  0  0  0  0  0  0  0  0  0  0  0
    4.0764   -0.0855   -1.3039 C   0  0  0  0  0  0  0  0  0  0  0  0
    2.9713    0.7601   -1.2279 N   0  0  0  0  0  0  0  0  0  0  0  0
    2.3834    1.3987   -2.3201 C   0  0  0  0  0  0  0  0  0  0  0  0
    1.3861    2.3304   -2.0716 C   0  0  0  0  0  0  0  0  0  0  0  0
    0.7538    2.9462   -3.1545 C   0  0  0  0  0  0  0  0  0  0  0  0
    1.0776    2.5966   -4.4705 C   0  0  0  0  0  0  0  0  0  0  0  0
    0.2621    3.0800   -5.6160 C   0  0  0  0  0  0  0  0  0  0  0  0
    0.6466    2.8583   -6.8783 C   0  0  0  0  0  0  0  0  0  0  0  0
   -0.3750    3.0176   -7.9220 C   0  0  0  0  0  0  0  0  0  0  0  0
   -0.2600    2.3652   -8.9558 O   0  0  0  0  0  0  0  0  0  0  0  0
   -1.4200    3.8613   -7.6087 N   0  0  0  0  0  0  0  0  0  0  0  0
   -2.2577    4.2845   -8.6254 C   0  0  0  0  0  0  0  0  0  0  0  0
   -3.2909    5.1065   -8.3854 C   0  0  0  0  0  0  0  0  0  0  0  0
   -3.5666    5.5202   -7.0383 C   0  0  0  0  0  0  0  0  0  0  0  0
   -2.8388    5.0939   -5.9942 C   0  0  0  0  0  0  0  0  0  0  0  0
   -3.1952    5.5487   -4.7295 O   0  0  0  0  0  0  0  0  0  0  0  0
   -2.1820    5.5136   -3.7297 C   0  0  0  0  0  0  0  0  0  0  0  0
   -2.5693    6.4002   -2.5752 C   0  0  0  0  0  0  0  0  0  0  0  0
   -3.6820    6.0837   -1.7837 C   0  0  0  0  0  0  0  0  0  0  0  0
   -4.0177    6.8836   -0.6925 C   0  0  0  0  0  0  0  0  0  0  0  0
   -3.2492    8.0035   -0.3814 C   0  0  0  0  0  0  0  0  0  0  0  0
   -2.1426    8.3289   -1.1646 C   0  0  0  0  0  0  0  0  0  0  0  0
   -1.8019    7.5319   -2.2547 C   0  0  0  0  0  0  0  0  0  0  0  0
   -1.6482    4.1804   -6.2790 C   0  0  0  0  0  0  0  0  0  0  0  0
   -0.8961    3.7415   -5.3141 N   0  0  0  0  0  0  0  0  0  0  0  0
    2.0958    1.6571   -4.5993 C   0  0  0  0  0  0  0  0  0  0  0  0
    2.7507    1.0768   -3.5672 N   0  0  0  0  0  0  0  0  0  0  0  0
    4.4460   -0.6943    0.0541 C   0  0  0  0  0  0  0  0  0  0  0  0
    3.5071   -0.4079    1.0071 F   0  0  0  0  0  0  0  0  0  0  0  0
    4.5547   -2.0490    0.0203 F   0  0  0  0  0  0  0  0  0  0  0  0
    5.6243   -0.2132    0.5362 F   0  0  0  0  0  0  0  0  0  0  0  0
    2.5629    0.9208   -0.3148 H   0  0  0  0  0  0  0  0  0  0  0  0
    1.0816    2.5868   -1.0632 H   0  0  0  0  0  0  0  0  0  0  0  0
   -0.0258    3.6728   -2.9502 H   0  0  0  0  0  0  0  0  0  0  0  0
    1.5867    2.4347   -7.1980 H   0  0  0  0  0  0  0  0  0  0  0  0
   -2.0306    3.9522   -9.6373 H   0  0  0  0  0  0  0  0  0  0  0  0
   -3.9203    5.4756   -9.1912 H   0  0  0  0  0  0  0  0  0  0  0  0
   -4.4035    6.1922   -6.8777 H   0  0  0  0  0  0  0  0  0  0  0  0
   -1.2231    5.8633   -4.1316 H   0  0  0  0  0  0  0  0  0  0  0  0
   -2.0881    4.4948   -3.3395 H   0  0  0  0  0  0  0  0  0  0  0  0
   -4.2833    5.2067   -2.0154 H   0  0  0  0  0  0  0  0  0  0  0  0
   -4.8829    6.6325   -0.0845 H   0  0  0  0  0  0  0  0  0  0  0  0
   -3.5148    8.6246    0.4711 H   0  0  0  0  0  0  0  0  0  0  0  0
   -1.5319    9.2002   -0.9121 H   0  0  0  0  0  0  0  0  0  0  0  0
   -0.9314    7.7928   -2.8539 H   0  0  0  0  0  0  0  0  0  0  0  0
    2.4197    1.2778   -5.5638 H   0  0  0  0  0  0  0  0  0  0  0  0
  1  2  2  0  0  0  0
  2  3  1  0  0  0  0
  2 29  1  0  0  0  0
  3  4  1  0  0  0  0
  3 33  1  0  0  0  0
  4  5  2  0  0  0  0
  4 28  1  0  0  0  0
  5  6  1  0  0  0  0
  5 34  1  0  0  0  0
  6  7  2  0  0  0  0
  6 35  1  0  0  0  0
  7  8  1  0  0  0  0
  7 27  1  0  0  0  0
  8  9  2  0  0  0  0
  8 26  1  0  0  0  0
  9 10  1  0  0  0  0
  9 36  1  0  0  0  0
 10 11  2  0  0  0  0
 10 12  1  0  0  0  0
 12 13  1  0  0  0  0
 12 25  1  0  0  0  0
 13 14  2  0  0  0  0
 13 37  1  0  0  0  0
 14 15  1  0  0  0  0
 14 38  1  0  0  0  0
 15 16  2  0  0  0  0
 15 39  1  0  0  0  0
 16 17  1  0  0  0  0
 16 25  1  0  0  0  0
 17 18  1  0  0  0  0
 18 19  1  0  0  0  0
 18 40  1  0  0  0  0
 18 41  1  0  0  0  0
 19 20  2  0  0  0  0
 19 24  1  0  0  0  0
 20 21  1  0  0  0  0
 20 42  1  0  0  0  0
 21 22  2  0  0  0  0
 21 43  1  0  0  0  0
 22 23  1  0  0  0  0
 22 44  1  0  0  0  0
 23 24  2  0  0  0  0
 23 45  1  0  0  0  0
 24 46  1  0  0  0  0
 25 26  2  0  0  0  0
 27 28  2  0  0  0  0
 27 47  1  0  0  0  0
 29 30  1  0  0  0  0
 29 31  1  0  0  0  0
 29 32  1  0  0  0  0
M  END
$$$$
