
 OpenBabel01122422513D

 57 60  0  0  1  0  0  0  0  0999 V2000
   -0.6397    1.3836    5.4532 C   0  0  0  0  0  0  0  0  0  0  0  0
    0.3557    2.4887    5.8089 C   0  0  3  0  0  0  0  0  0  0  0  0
    1.0257    2.9882    4.6199 N   0  0  0  0  0  0  0  0  0  0  0  0
    1.9541    2.2552    3.9234 C   0  0  0  0  0  0  0  0  0  0  0  0
    2.2432    1.0955    4.2156 O   0  0  0  0  0  0  0  0  0  0  0  0
    2.5586    2.9406    2.6939 C   0  0  0  0  0  0  0  0  0  0  0  0
    2.2396    4.3525    2.5703 N   0  0  0  0  0  0  0  0  0  0  0  0
    2.9664    5.2996    3.2489 C   0  0  0  0  0  0  0  0  0  0  0  0
    3.8873    4.9758    3.9918 O   0  0  0  0  0  0  0  0  0  0  0  0
    2.5406    6.7261    3.0416 C   0  0  0  0  0  0  0  0  0  0  0  0
    3.4062    7.7543    3.2116 C   0  0  0  0  0  0  0  0  0  0  0  0
    4.8130    7.5334    3.6005 C   0  0  0  0  0  0  0  0  0  0  0  0
    5.7772    7.2390    2.6225 C   0  0  0  0  0  0  0  0  0  0  0  0
    7.1295    7.1938    2.9607 C   0  0  0  0  0  0  0  0  0  0  0  0
    7.5192    7.3608    4.2880 C   0  0  0  0  0  0  0  0  0  0  0  0
    6.5584    7.5576    5.2800 C   0  0  0  0  0  0  0  0  0  0  0  0
    5.2083    7.6538    4.9395 C   0  0  0  0  0  0  0  0  0  0  0  0
    2.8525    9.1540    2.9931 C   0  0  0  0  0  0  0  0  0  0  0  0
    3.7452   10.3683    3.0956 C   0  0  0  0  0  0  0  0  0  0  0  0
    5.0594   10.4020    2.6238 C   0  0  0  0  0  0  0  0  0  0  0  0
    5.8649   11.5312    2.7837 C   0  0  0  0  0  0  0  0  0  0  0  0
    5.3296   12.6911    3.3269 C   0  0  0  0  0  0  0  0  0  0  0  0
    3.9903   12.7157    3.7086 C   0  0  0  0  0  0  0  0  0  0  0  0
    3.2055   11.5597    3.6060 C   0  0  0  0  0  0  0  0  0  0  0  0
    1.6018    9.3903    2.7281 N   0  0  0  0  0  0  0  0  0  0  0  0
    0.7690    8.3329    2.5947 N   0  0  0  0  0  0  0  0  0  0  0  0
    1.1365    7.0218    2.6568 C   0  0  0  0  0  0  0  0  0  0  0  0
    0.3296    6.1322    2.3942 O   0  0  0  0  0  0  0  0  0  0  0  0
   -0.3727    3.6136    6.5353 C   0  0  0  0  0  0  0  0  0  0  0  0
   -0.5007    3.5797    7.9248 C   0  0  0  0  0  0  0  0  0  0  0  0
   -1.2323    4.5802    8.5614 C   0  0  0  0  0  0  0  0  0  0  0  0
   -1.8215    5.5800    7.7996 C   0  0  0  0  0  0  0  0  0  0  0  0
   -1.6461    5.5476    6.4271 C   0  0  0  0  0  0  0  0  0  0  0  0
   -0.9338    4.5964    5.7817 N   0  0  0  0  0  0  0  0  0  0  0  0
   -0.1431    0.5404    4.9622 H   0  0  0  0  0  0  0  0  0  0  0  0
   -1.4123    1.7506    4.7675 H   0  0  0  0  0  0  0  0  0  0  0  0
   -1.1386    0.9963    6.3480 H   0  0  0  0  0  0  0  0  0  0  0  0
    1.1347    2.0799    6.4649 H   0  0  0  0  0  0  0  0  0  0  0  0
    0.7904    3.9296    4.3224 H   0  0  0  0  0  0  0  0  0  0  0  0
    2.1800    2.4402    1.7976 H   0  0  0  0  0  0  0  0  0  0  0  0
    3.6463    2.8205    2.7416 H   0  0  0  0  0  0  0  0  0  0  0  0
    1.3591    4.6192    2.1305 H   0  0  0  0  0  0  0  0  0  0  0  0
    5.4872    7.1197    1.5807 H   0  0  0  0  0  0  0  0  0  0  0  0
    7.8782    7.0452    2.1874 H   0  0  0  0  0  0  0  0  0  0  0  0
    8.5728    7.3276    4.5523 H   0  0  0  0  0  0  0  0  0  0  0  0
    6.8618    7.6436    6.3199 H   0  0  0  0  0  0  0  0  0  0  0  0
    4.4712    7.8128    5.7226 H   0  0  0  0  0  0  0  0  0  0  0  0
    5.4937    9.5684    2.0952 H   0  0  0  0  0  0  0  0  0  0  0  0
    6.9039   11.4996    2.4644 H   0  0  0  0  0  0  0  0  0  0  0  0
    5.9495   13.5779    3.4280 H   0  0  0  0  0  0  0  0  0  0  0  0
    3.5555   13.6375    4.0867 H   0  0  0  0  0  0  0  0  0  0  0  0
    2.1634   11.6054    3.9153 H   0  0  0  0  0  0  0  0  0  0  0  0
   -0.1899    8.5420    2.3455 H   0  0  0  0  0  0  0  0  0  0  0  0
   -0.0480    2.7835    8.5071 H   0  0  0  0  0  0  0  0  0  0  0  0
   -1.3480    4.5691    9.6415 H   0  0  0  0  0  0  0  0  0  0  0  0
   -2.4110    6.3645    8.2639 H   0  0  0  0  0  0  0  0  0  0  0  0
   -2.0941    6.3045    5.7886 H   0  0  0  0  0  0  0  0  0  0  0  0
  1  2  1  0  0  0  0
  1 35  1  0  0  0  0
  1 36  1  0  0  0  0
  1 37  1  0  0  0  0
  2  3  1  0  0  0  0
  2 29  1  0  0  0  0
  2 38  1  0  0  0  0
  3  4  1  0  0  0  0
  3 39  1  0  0  0  0
  4  5  2  0  0  0  0
  4  6  1  0  0  0  0
  6  7  1  0  0  0  0
  6 40  1  0  0  0  0
  6 41  1  0  0  0  0
  7  8  1  0  0  0  0
  7 42  1  0  0  0  0
  8  9  2  0  0  0  0
  8 10  1  0  0  0  0
 10 11  2  0  0  0  0
 10 27  1  0  0  0  0
 11 12  1  0  0  0  0
 11 18  1  0  0  0  0
 12 13  2  0  0  0  0
 12 17  1  0  0  0  0
 13 14  1  0  0  0  0
 13 43  1  0  0  0  0
 14 15  2  0  0  0  0
 14 44  1  0  0  0  0
 15 16  1  0  0  0  0
 15 45  1  0  0  0  0
 16 17  2  0  0  0  0
 16 46  1  0  0  0  0
 17 47  1  0  0  0  0
 18 19  1  0  0  0  0
 18 25  2  0  0  0  0
 19 20  2  0  0  0  0
 19 24  1  0  0  0  0
 20 21  1  0  0  0  0
 20 48  1  0  0  0  0
 21 22  2  0  0  0  0
 21 49  1  0  0  0  0
 22 23  1  0  0  0  0
 22 50  1  0  0  0  0
 23 24  2  0  0  0  0
 23 51  1  0  0  0  0
 24 52  1  0  0  0  0
 25 26  1  0  0  0  0
 26 27  1  0  0  0  0
 26 53  1  0  0  0  0
 27 28  2  0  0  0  0
 29 30  2  0  0  0  0
 29 34  1  0  0  0  0
 30 31  1  0  0  0  0
 30 54  1  0  0  0  0
 31 32  2  0  0  0  0
 31 55  1  0  0  0  0
 32 33  1  0  0  0  0
 32 56  1  0  0  0  0
 33 34  2  0  0  0  0
 33 57  1  0  0  0  0
M  END
$$$$
