
 OpenBabel01122422513D

 42 45  0  0  0  0  0  0  0  0999 V2000
   -3.0263    0.3644   -0.2898 N   0  0  0  0  0  0  0  0  0  0  0  0
   -1.8741    0.2519   -0.2172 C   0  0  0  0  0  0  0  0  0  0  0  0
   -0.4503    0.1186   -0.1214 C   0  0  0  0  0  0  0  0  0  0  0  0
    0.1313   -1.1548   -0.0323 C   0  0  0  0  0  0  0  0  0  0  0  0
    1.5198   -1.3084    0.0860 C   0  0  0  0  0  0  0  0  0  0  0  0
    2.1859   -2.6244    0.2170 C   0  0  0  0  0  0  0  0  0  0  0  0
    3.4757   -2.8413   -0.2987 C   0  0  0  0  0  0  0  0  0  0  0  0
    4.1048   -4.0581   -0.0898 C   0  0  0  0  0  0  0  0  0  0  0  0
    3.5403   -5.0838    0.5736 N   0  0  0  0  0  0  0  0  0  0  0  0
    2.2970   -4.8760    1.0526 C   0  0  0  0  0  0  0  0  0  0  0  0
    1.5936   -3.6886    0.9054 C   0  0  0  0  0  0  0  0  0  0  0  0
    2.2943   -0.1348    0.1110 C   0  0  0  0  0  0  0  0  0  0  0  0
    1.7460    1.1439    0.0056 C   0  0  0  0  0  0  0  0  0  0  0  0
    2.5328    2.3199    0.0329 N   0  0  0  0  0  0  0  0  0  0  0  0
    3.9210    2.3806    0.0215 C   0  0  0  0  0  0  0  0  0  0  0  0
    4.6661    1.4088   -0.0497 O   0  0  0  0  0  0  0  0  0  0  0  0
    4.5273    3.7569    0.0992 C   0  0  0  0  0  0  0  0  0  0  0  0
    3.8523    4.7815   -0.4633 C   0  0  0  0  0  0  0  0  0  0  0  0
    4.3824    6.1557   -0.4832 C   0  0  0  0  0  0  0  0  0  0  0  0
    3.7020    7.0706   -0.9335 O   0  0  0  0  0  0  0  0  0  0  0  0
    5.6382    6.3407    0.0000 N   0  0  0  0  0  0  0  0  0  0  0  0
    6.4361    5.3070    0.4967 C   0  0  0  0  0  0  0  0  0  0  0  0
    7.7573    5.5981    0.8537 C   0  0  0  0  0  0  0  0  0  0  0  0
    8.5841    4.5815    1.3198 C   0  0  0  0  0  0  0  0  0  0  0  0
    8.0644    3.3050    1.4784 C   0  0  0  0  0  0  0  0  0  0  0  0
    8.8552    2.3293    1.9439 F   0  0  0  0  0  0  0  0  0  0  0  0
    6.7398    3.0159    1.1472 C   0  0  0  0  0  0  0  0  0  0  0  0
    5.9062    4.0065    0.6059 C   0  0  0  0  0  0  0  0  0  0  0  0
    0.3603    1.2655   -0.1029 C   0  0  0  0  0  0  0  0  0  0  0  0
   -0.5141   -2.0329   -0.0578 H   0  0  0  0  0  0  0  0  0  0  0  0
    4.0095   -2.0726   -0.8502 H   0  0  0  0  0  0  0  0  0  0  0  0
    5.1122   -4.2337   -0.4573 H   0  0  0  0  0  0  0  0  0  0  0  0
    1.8651   -5.7160    1.5900 H   0  0  0  0  0  0  0  0  0  0  0  0
    0.6107   -3.6017    1.3553 H   0  0  0  0  0  0  0  0  0  0  0  0
    3.3624   -0.2509    0.2563 H   0  0  0  0  0  0  0  0  0  0  0  0
    2.0112    3.1843    0.0611 H   0  0  0  0  0  0  0  0  0  0  0  0
    2.9010    4.6833   -0.9641 H   0  0  0  0  0  0  0  0  0  0  0  0
    5.9934    7.2870   -0.0459 H   0  0  0  0  0  0  0  0  0  0  0  0
    8.1579    6.6024    0.7443 H   0  0  0  0  0  0  0  0  0  0  0  0
    9.6256    4.7724    1.5581 H   0  0  0  0  0  0  0  0  0  0  0  0
    6.4089    1.9935    1.3019 H   0  0  0  0  0  0  0  0  0  0  0  0
   -0.1056    2.2470   -0.1791 H   0  0  0  0  0  0  0  0  0  0  0  0
  1  2  3  0  0  0  0
  2  3  1  0  0  0  0
  3  4  2  0  0  0  0
  3 29  1  0  0  0  0
  4  5  1  0  0  0  0
  4 30  1  0  0  0  0
  5  6  1  0  0  0  0
  5 12  2  0  0  0  0
  6  7  2  0  0  0  0
  6 11  1  0  0  0  0
  7  8  1  0  0  0  0
  7 31  1  0  0  0  0
  8  9  2  0  0  0  0
  8 32  1  0  0  0  0
  9 10  1  0  0  0  0
 10 11  2  0  0  0  0
 10 33  1  0  0  0  0
 11 34  1  0  0  0  0
 12 13  1  0  0  0  0
 12 35  1  0  0  0  0
 13 14  1  0  0  0  0
 13 29  2  0  0  0  0
 14 15  1  0  0  0  0
 14 36  1  0  0  0  0
 15 16  2  0  0  0  0
 15 17  1  0  0  0  0
 17 18  2  0  0  0  0
 17 28  1  0  0  0  0
 18 19  1  0  0  0  0
 18 37  1  0  0  0  0
 19 20  2  0  0  0  0
 19 21  1  0  0  0  0
 21 22  1  0  0  0  0
 21 38  1  0  0  0  0
 22 23  2  0  0  0  0
 22 28  1  0  0  0  0
 23 24  1  0  0  0  0
 23 39  1  0  0  0  0
 24 25  2  0  0  0  0
 24 40  1  0  0  0  0
 25 26  1  0  0  0  0
 25 27  1  0  0  0  0
 27 28  2  0  0  0  0
 27 41  1  0  0  0  0
 29 42  1  0  0  0  0
M  END
$$$$
