
 OpenBabel01122422463D

 48 51  0  0  0  0  0  0  0  0999 V2000
    2.8800   -2.3973    5.9308 C   0  0  0  0  0  0  0  0  0  0  0  0
    2.3567   -2.6322    4.5908 N   0  0  0  0  0  0  0  0  0  0  0  0
    1.2209   -2.0362    4.1337 C   0  0  0  0  0  0  0  0  0  0  0  0
    0.5570   -1.2368    4.7857 O   0  0  0  0  0  0  0  0  0  0  0  0
    0.8689   -2.3150    2.7199 C   0  0  0  0  0  0  0  0  0  0  0  0
    1.7162   -3.0198    1.9567 C   0  0  0  0  0  0  0  0  0  0  0  0
    2.7530   -3.7577    2.5287 N   0  0  0  0  0  0  0  0  0  0  0  0
    3.4211   -4.8595    1.7025 C   0  0  0  0  0  0  0  0  0  0  0  0
    4.6669   -4.4983    0.8124 C   0  0  0  0  0  0  0  0  0  0  0  0
    5.4484   -3.5997    1.1122 O   0  0  0  0  0  0  0  0  0  0  0  0
    4.8589   -5.0658   -0.4481 N   0  0  0  0  0  0  0  0  0  0  0  0
    3.9198   -6.1274   -0.7772 C   0  0  0  0  0  0  0  0  0  0  0  0
    3.8637   -7.2767    0.0361 C   0  0  0  0  0  0  0  0  0  0  0  0
    2.7606   -8.1399   -0.0501 C   0  0  0  0  0  0  0  0  0  0  0  0
    1.9128   -8.0670   -1.1497 C   0  0  0  0  0  0  0  0  0  0  0  0
    2.0289   -6.9966   -2.0378 C   0  0  0  0  0  0  0  0  0  0  0  0
    2.9495   -5.9514   -1.8183 C   0  0  0  0  0  0  0  0  0  0  0  0
    2.8310   -4.7030   -2.6433 C   0  0  0  0  0  0  0  0  0  0  0  0
    2.3169   -4.7958   -3.9432 C   0  0  0  0  0  0  0  0  0  0  0  0
    1.8370   -3.6414   -4.5499 C   0  0  0  0  0  0  0  0  0  0  0  0
    2.1417   -2.3660   -4.0381 C   0  0  0  0  0  0  0  0  0  0  0  0
    1.9548   -1.2471   -4.8119 C   0  0  0  0  0  0  0  0  0  0  0  0
    2.5645   -0.0375   -4.4373 C   0  0  0  0  0  0  0  0  0  0  0  0
    2.5214    0.5028   -3.1692 C   0  0  0  0  0  0  0  0  0  0  0  0
    2.8378   -0.6456   -2.4321 C   0  0  0  0  0  0  0  0  0  0  0  0
    2.6895   -2.1414   -2.7881 C   0  0  0  0  0  0  0  0  0  0  0  0
    3.0002   -3.3893   -2.0884 C   0  0  0  0  0  0  0  0  0  0  0  0
    3.0142   -3.6085    3.8908 C   0  0  0  0  0  0  0  0  0  0  0  0
    3.7300   -4.3080    4.5973 O   0  0  0  0  0  0  0  0  0  0  0  0
    2.3244   -1.6283    6.4576 H   0  0  0  0  0  0  0  0  0  0  0  0
    3.9432   -2.1067    5.8593 H   0  0  0  0  0  0  0  0  0  0  0  0
    2.8327   -3.3290    6.5116 H   0  0  0  0  0  0  0  0  0  0  0  0
   -0.0473   -1.8607    2.3590 H   0  0  0  0  0  0  0  0  0  0  0  0
    1.5945   -3.0626    0.8744 H   0  0  0  0  0  0  0  0  0  0  0  0
    2.6538   -5.2447    1.0149 H   0  0  0  0  0  0  0  0  0  0  0  0
    3.6889   -5.6832    2.3852 H   0  0  0  0  0  0  0  0  0  0  0  0
    5.8182   -5.1652   -0.7554 H   0  0  0  0  0  0  0  0  0  0  0  0
    4.6212   -7.4899    0.7839 H   0  0  0  0  0  0  0  0  0  0  0  0
    2.5575   -8.8722    0.7309 H   0  0  0  0  0  0  0  0  0  0  0  0
    1.1632   -8.8368   -1.3234 H   0  0  0  0  0  0  0  0  0  0  0  0
    1.3691   -6.9531   -2.9008 H   0  0  0  0  0  0  0  0  0  0  0  0
    2.1136   -5.7560   -4.4212 H   0  0  0  0  0  0  0  0  0  0  0  0
    1.1109   -3.7425   -5.3571 H   0  0  0  0  0  0  0  0  0  0  0  0
    1.4902   -1.2607   -5.7842 H   0  0  0  0  0  0  0  0  0  0  0  0
    3.6839   -0.1129   -4.4689 H   0  0  0  0  0  0  0  0  0  0  0  0
    2.2583    1.3835   -3.7859 H   0  0  0  0  0  0  0  0  0  0  0  0
    3.4277   -0.4859   -1.5224 H   0  0  0  0  0  0  0  0  0  0  0  0
    3.3048   -3.3661   -1.0434 H   0  0  0  0  0  0  0  0  0  0  0  0
  1  2  1  0  0  0  0
  1 30  1  0  0  0  0
  1 31  1  0  0  0  0
  1 32  1  0  0  0  0
  2  3  1  0  0  0  0
  2 28  1  0  0  0  0
  3  4  2  0  0  0  0
  3  5  1  0  0  0  0
  5  6  2  0  0  0  0
  5 33  1  0  0  0  0
  6  7  1  0  0  0  0
  6 34  1  0  0  0  0
  7  8  1  0  0  0  0
  7 28  1  0  0  0  0
  8  9  1  0  0  0  0
  8 35  1  0  0  0  0
  8 36  1  0  0  0  0
  9 10  2  0  0  0  0
  9 11  1  0  0  0  0
 11 12  1  0  0  0  0
 11 37  1  0  0  0  0
 12 13  2  0  0  0  0
 12 17  1  0  0  0  0
 13 14  1  0  0  0  0
 13 38  1  0  0  0  0
 14 15  2  0  0  0  0
 14 39  1  0  0  0  0
 15 16  1  0  0  0  0
 15 40  1  0  0  0  0
 16 17  2  0  0  0  0
 16 41  1  0  0  0  0
 17 18  1  0  0  0  0
 18 19  2  0  0  0  0
 18 27  1  0  0  0  0
 19 20  1  0  0  0  0
 19 42  1  0  0  0  0
 20 21  2  0  0  0  0
 20 43  1  0  0  0  0
 21 22  1  0  0  0  0
 21 26  1  0  0  0  0
 22 23  2  0  0  0  0
 22 44  1  0  0  0  0
 23 24  1  0  0  0  0
 23 45  1  0  0  0  0
 24 25  2  0  0  0  0
 24 46  1  0  0  0  0
 25 26  1  0  0  0  0
 25 47  1  0  0  0  0
 26 27  2  0  0  0  0
 27 48  1  0  0  0  0
 28 29  2  0  0  0  0
M  END
$$$$
