
 OpenBabel01122422513D

 47 50  0  0  0  0  0  0  0  0999 V2000
    1.2628   -0.9545   -0.5704 C   0  0  0  0  0  0  0  0  0  0  0  0
    2.6908   -0.9623   -0.6052 O   0  0  0  0  0  0  0  0  0  0  0  0
    3.2345    0.0762   -1.2865 C   0  0  0  0  0  0  0  0  0  0  0  0
    2.6142    0.9588   -1.8622 O   0  0  0  0  0  0  0  0  0  0  0  0
    4.7198    0.0123   -1.2445 C   0  0  0  0  0  0  0  0  0  0  0  0
    5.4285   -1.0148   -0.6134 C   0  0  0  0  0  0  0  0  0  0  0  0
    6.8346   -1.0078   -0.6076 C   0  0  0  0  0  0  0  0  0  0  0  0
    7.5757    0.0072   -1.2063 C   0  0  0  0  0  0  0  0  0  0  0  0
    8.9302   -0.0098   -1.1646 N   0  0  0  0  0  0  0  0  0  0  0  0
    9.5762    1.0379   -1.7488 C   0  0  0  0  0  0  0  0  0  0  0  0
   11.0710    1.0962   -1.6936 C   0  0  0  0  0  0  0  0  0  0  0  0
   11.6157    2.0618   -2.2332 O   0  0  0  0  0  0  0  0  0  0  0  0
   11.7314    0.0426   -1.0765 N   0  0  0  0  0  0  0  0  0  0  0  0
   13.1415   -0.0474   -0.9463 C   0  0  0  0  0  0  0  0  0  0  0  0
   13.9812    1.0662   -1.0723 C   0  0  0  0  0  0  0  0  0  0  0  0
   15.3734    0.9485   -0.9944 C   0  0  0  0  0  0  0  0  0  0  0  0
   15.9612   -0.3025   -0.8257 C   0  0  0  0  0  0  0  0  0  0  0  0
   17.3831   -0.4441   -0.8267 N   0  0  0  0  0  0  0  0  0  0  0  0
   17.9973   -1.3320   -1.7042 C   0  0  0  0  0  0  0  0  0  0  0  0
   19.3218   -1.5273   -1.7035 C   0  0  0  0  0  0  0  0  0  0  0  0
   20.1494   -0.8350   -0.7535 C   0  0  0  0  0  0  0  0  0  0  0  0
   19.6094    0.0493    0.0927 C   0  0  0  0  0  0  0  0  0  0  0  0
   18.1403    0.3198    0.0821 C   0  0  0  0  0  0  0  0  0  0  0  0
   17.7025    1.1350    0.8924 O   0  0  0  0  0  0  0  0  0  0  0  0
   15.1300   -1.4231   -0.6810 C   0  0  0  0  0  0  0  0  0  0  0  0
   13.7297   -1.2912   -0.7009 C   0  0  0  0  0  0  0  0  0  0  0  0
    8.9265    2.0875   -2.3910 C   0  0  0  0  0  0  0  0  0  0  0  0
    7.5436    2.0871   -2.4362 C   0  0  0  0  0  0  0  0  0  0  0  0
    6.8406    1.0445   -1.8358 C   0  0  0  0  0  0  0  0  0  0  0  0
    5.4367    1.0401   -1.8573 C   0  0  0  0  0  0  0  0  0  0  0  0
    0.9383   -1.7321    0.1263 H   0  0  0  0  0  0  0  0  0  0  0  0
    0.8603   -1.1828   -1.5619 H   0  0  0  0  0  0  0  0  0  0  0  0
    0.8860    0.0078   -0.2103 H   0  0  0  0  0  0  0  0  0  0  0  0
    4.9035   -1.8289   -0.1188 H   0  0  0  0  0  0  0  0  0  0  0  0
    7.3622   -1.8195   -0.1110 H   0  0  0  0  0  0  0  0  0  0  0  0
   11.1584   -0.7571   -0.8221 H   0  0  0  0  0  0  0  0  0  0  0  0
   13.5836    2.0643   -1.2286 H   0  0  0  0  0  0  0  0  0  0  0  0
   15.9826    1.8409   -1.1173 H   0  0  0  0  0  0  0  0  0  0  0  0
   17.3589   -1.8313   -2.4275 H   0  0  0  0  0  0  0  0  0  0  0  0
   19.7924   -2.2043   -2.4091 H   0  0  0  0  0  0  0  0  0  0  0  0
   21.2129   -1.0499   -0.7350 H   0  0  0  0  0  0  0  0  0  0  0  0
   20.1923    0.5837    0.8319 H   0  0  0  0  0  0  0  0  0  0  0  0
   15.5689   -2.4035   -0.5118 H   0  0  0  0  0  0  0  0  0  0  0  0
   13.1201   -2.1799   -0.5634 H   0  0  0  0  0  0  0  0  0  0  0  0
    9.4870    2.9003   -2.8445 H   0  0  0  0  0  0  0  0  0  0  0  0
    7.0283    2.9094   -2.9275 H   0  0  0  0  0  0  0  0  0  0  0  0
    4.8953    1.8490   -2.3484 H   0  0  0  0  0  0  0  0  0  0  0  0
  1  2  1  0  0  0  0
  1 31  1  0  0  0  0
  1 32  1  0  0  0  0
  1 33  1  0  0  0  0
  2  3  1  0  0  0  0
  3  4  2  0  0  0  0
  3  5  1  0  0  0  0
  5  6  2  0  0  0  0
  5 30  1  0  0  0  0
  6  7  1  0  0  0  0
  6 34  1  0  0  0  0
  7  8  2  0  0  0  0
  7 35  1  0  0  0  0
  8  9  1  0  0  0  0
  8 29  1  0  0  0  0
  9 10  2  0  0  0  0
 10 11  1  0  0  0  0
 10 27  1  0  0  0  0
 11 12  2  0  0  0  0
 11 13  1  0  0  0  0
 13 14  1  0  0  0  0
 13 36  1  0  0  0  0
 14 15  2  0  0  0  0
 14 26  1  0  0  0  0
 15 16  1  0  0  0  0
 15 37  1  0  0  0  0
 16 17  2  0  0  0  0
 16 38  1  0  0  0  0
 17 18  1  0  0  0  0
 17 25  1  0  0  0  0
 18 19  1  0  0  0  0
 18 23  1  0  0  0  0
 19 20  2  0  0  0  0
 19 39  1  0  0  0  0
 20 21  1  0  0  0  0
 20 40  1  0  0  0  0
 21 22  2  0  0  0  0
 21 41  1  0  0  0  0
 22 23  1  0  0  0  0
 22 42  1  0  0  0  0
 23 24  2  0  0  0  0
 25 26  2  0  0  0  0
 25 43  1  0  0  0  0
 26 44  1  0  0  0  0
 27 28  2  0  0  0  0
 27 45  1  0  0  0  0
 28 29  1  0  0  0  0
 28 46  1  0  0  0  0
 29 30  2  0  0  0  0
 30 47  1  0  0  0  0
M  END
$$$$
