
 OpenBabel01122422513D

 53 56  0  0  0  0  0  0  0  0999 V2000
    1.0513   -0.0876   -1.5577 C   0  0  0  0  0  0  0  0  0  0  0  0
    2.5030   -0.2319   -1.5508 N   0  0  0  0  0  0  0  0  0  0  0  0
    3.1621   -1.1760   -2.4641 C   0  0  0  0  0  0  0  0  0  0  0  0
    2.3322   -2.2661   -3.1339 C   0  0  0  0  0  0  0  0  0  0  0  0
    1.5454   -1.7217   -4.1879 O   0  0  0  0  0  0  0  0  0  0  0  0
    0.6690   -2.5977   -4.7676 C   0  0  0  0  0  0  0  0  0  0  0  0
    0.6304   -3.9782   -4.5461 C   0  0  0  0  0  0  0  0  0  0  0  0
   -0.3027   -4.7714   -5.2079 C   0  0  0  0  0  0  0  0  0  0  0  0
   -1.1998   -4.1921   -6.1024 C   0  0  0  0  0  0  0  0  0  0  0  0
   -1.1675   -2.8130   -6.3268 C   0  0  0  0  0  0  0  0  0  0  0  0
   -2.0890   -2.2148   -7.2417 C   0  0  0  0  0  0  0  0  0  0  0  0
   -2.8319   -1.7329   -7.9893 N   0  0  0  0  0  0  0  0  0  0  0  0
   -0.2333   -2.0174   -5.6586 C   0  0  0  0  0  0  0  0  0  0  0  0
    3.1858    0.7175   -0.7622 C   0  0  0  0  0  0  0  0  0  0  0  0
    2.5503    1.5057   -0.0620 O   0  0  0  0  0  0  0  0  0  0  0  0
    4.6467    0.7926   -0.7922 C   0  0  0  0  0  0  0  0  0  0  0  0
    5.5509   -0.2470   -0.8286 C   0  0  0  0  0  0  0  0  0  0  0  0
    6.8161    0.2774   -0.8096 N   0  0  0  0  0  0  0  0  0  0  0  0
    8.0322   -0.4495   -0.9455 C   0  0  0  0  0  0  0  0  0  0  0  0
    8.0206   -1.8099   -1.3030 C   0  0  0  0  0  0  0  0  0  0  0  0
    9.2182   -2.5127   -1.4440 C   0  0  0  0  0  0  0  0  0  0  0  0
   10.4322   -1.8692   -1.2219 C   0  0  0  0  0  0  0  0  0  0  0  0
   10.4519   -0.5197   -0.8678 C   0  0  0  0  0  0  0  0  0  0  0  0
    9.2574    0.1932   -0.7353 C   0  0  0  0  0  0  0  0  0  0  0  0
    6.7856    1.6149   -0.6316 N   0  0  0  0  0  0  0  0  0  0  0  0
    5.4815    1.9535   -0.6558 C   0  0  0  0  0  0  0  0  0  0  0  0
    5.0913    3.3674   -0.5587 C   0  0  0  0  0  0  0  0  0  0  0  0
    3.9777    3.8628   -1.2408 C   0  0  0  0  0  0  0  0  0  0  0  0
    3.6552    5.2035   -1.1111 C   0  0  0  0  0  0  0  0  0  0  0  0
    4.3740    6.0802   -0.3811 N   0  0  0  0  0  0  0  0  0  0  0  0
    5.4551    5.5891    0.2576 C   0  0  0  0  0  0  0  0  0  0  0  0
    5.8491    4.2611    0.2034 C   0  0  0  0  0  0  0  0  0  0  0  0
    0.5445   -0.7834   -2.2222 H   0  0  0  0  0  0  0  0  0  0  0  0
    0.7878    0.9328   -1.8565 H   0  0  0  0  0  0  0  0  0  0  0  0
    0.6854   -0.2613   -0.5410 H   0  0  0  0  0  0  0  0  0  0  0  0
    3.8546   -1.7455   -1.8507 H   0  0  0  0  0  0  0  0  0  0  0  0
    3.7261   -0.5989   -3.2049 H   0  0  0  0  0  0  0  0  0  0  0  0
    1.7083   -2.7606   -2.3786 H   0  0  0  0  0  0  0  0  0  0  0  0
    3.0318   -2.9951   -3.5630 H   0  0  0  0  0  0  0  0  0  0  0  0
    1.3119   -4.4711   -3.8572 H   0  0  0  0  0  0  0  0  0  0  0  0
   -0.3251   -5.8444   -5.0297 H   0  0  0  0  0  0  0  0  0  0  0  0
   -1.9192   -4.8214   -6.6228 H   0  0  0  0  0  0  0  0  0  0  0  0
   -0.2031   -0.9417   -5.8238 H   0  0  0  0  0  0  0  0  0  0  0  0
    5.4136   -1.3119   -0.8258 H   0  0  0  0  0  0  0  0  0  0  0  0
    7.1025   -2.3519   -1.5052 H   0  0  0  0  0  0  0  0  0  0  0  0
    9.2021   -3.5624   -1.7293 H   0  0  0  0  0  0  0  0  0  0  0  0
   11.3639   -2.4186   -1.3285 H   0  0  0  0  0  0  0  0  0  0  0  0
   11.4018   -0.0209   -0.6923 H   0  0  0  0  0  0  0  0  0  0  0  0
    9.2969    1.2444   -0.4566 H   0  0  0  0  0  0  0  0  0  0  0  0
    3.3539    3.2323   -1.8626 H   0  0  0  0  0  0  0  0  0  0  0  0
    2.7841    5.6162   -1.6112 H   0  0  0  0  0  0  0  0  0  0  0  0
    6.0197    6.3164    0.8342 H   0  0  0  0  0  0  0  0  0  0  0  0
    6.7300    3.9341    0.7458 H   0  0  0  0  0  0  0  0  0  0  0  0
  1  2  1  0  0  0  0
  1 33  1  0  0  0  0
  1 34  1  0  0  0  0
  1 35  1  0  0  0  0
  2  3  1  0  0  0  0
  2 14  1  0  0  0  0
  3  4  1  0  0  0  0
  3 36  1  0  0  0  0
  3 37  1  0  0  0  0
  4  5  1  0  0  0  0
  4 38  1  0  0  0  0
  4 39  1  0  0  0  0
  5  6  1  0  0  0  0
  6  7  2  0  0  0  0
  6 13  1  0  0  0  0
  7  8  1  0  0  0  0
  7 40  1  0  0  0  0
  8  9  2  0  0  0  0
  8 41  1  0  0  0  0
  9 10  1  0  0  0  0
  9 42  1  0  0  0  0
 10 11  1  0  0  0  0
 10 13  2  0  0  0  0
 11 12  3  0  0  0  0
 13 43  1  0  0  0  0
 14 15  2  0  0  0  0
 14 16  1  0  0  0  0
 16 17  2  0  0  0  0
 16 26  1  0  0  0  0
 17 18  1  0  0  0  0
 17 44  1  0  0  0  0
 18 19  1  0  0  0  0
 18 25  1  0  0  0  0
 19 20  2  0  0  0  0
 19 24  1  0  0  0  0
 20 21  1  0  0  0  0
 20 45  1  0  0  0  0
 21 22  2  0  0  0  0
 21 46  1  0  0  0  0
 22 23  1  0  0  0  0
 22 47  1  0  0  0  0
 23 24  2  0  0  0  0
 23 48  1  0  0  0  0
 24 49  1  0  0  0  0
 25 26  2  0  0  0  0
 26 27  1  0  0  0  0
 27 28  2  0  0  0  0
 27 32  1  0  0  0  0
 28 29  1  0  0  0  0
 28 50  1  0  0  0  0
 29 30  2  0  0  0  0
 29 51  1  0  0  0  0
 30 31  1  0  0  0  0
 31 32  2  0  0  0  0
 31 52  1  0  0  0  0
 32 53  1  0  0  0  0
M  END
$$$$
