
 OpenBabel01122422513D

 51 54  0  0  0  0  0  0  0  0999 V2000
   -2.7370   -4.4458   -8.1986 N   0  0  0  0  0  0  0  0  0  0  0  0
   -2.3281   -4.3295   -6.8981 C   0  0  0  0  0  0  0  0  0  0  0  0
   -3.1144   -4.0428   -6.0043 O   0  0  0  0  0  0  0  0  0  0  0  0
   -0.8743   -4.5928   -6.6406 C   0  0  0  0  0  0  0  0  0  0  0  0
   -0.3767   -4.5450   -5.3498 C   0  0  0  0  0  0  0  0  0  0  0  0
    0.9801   -4.7994   -5.1499 C   0  0  0  0  0  0  0  0  0  0  0  0
    1.7914   -5.0916   -6.2232 C   0  0  0  0  0  0  0  0  0  0  0  0
    3.3050   -5.2950   -6.1214 C   0  0  0  0  0  0  0  0  0  0  0  0
    3.7922   -5.8640   -4.7823 C   0  0  0  0  0  0  0  0  0  0  0  0
    3.6951   -5.2328   -3.7222 O   0  0  0  0  0  0  0  0  0  0  0  0
    4.3881   -7.1073   -4.8340 N   0  0  0  0  0  0  0  0  0  0  0  0
    4.8751   -7.7080   -3.6167 C   0  0  0  0  0  0  0  0  0  0  0  0
    5.6143   -8.9886   -3.8680 C   0  0  0  0  0  0  0  0  0  0  0  0
    6.9882   -8.9483   -4.0770 C   0  0  0  0  0  0  0  0  0  0  0  0
    7.6989  -10.1340   -4.2255 C   0  0  0  0  0  0  0  0  0  0  0  0
    7.0890  -11.4065   -4.1253 C   0  0  0  0  0  0  0  0  0  0  0  0
    7.9595  -12.6081   -4.1000 C   0  0  0  0  0  0  0  0  0  0  0  0
    9.2563  -12.4538   -3.5736 C   0  0  0  0  0  0  0  0  0  0  0  0
   10.2412  -13.4035   -3.7748 C   0  0  0  0  0  0  0  0  0  0  0  0
    9.8970  -14.6353   -4.3115 C   0  0  0  0  0  0  0  0  0  0  0  0
   10.8812  -15.5889   -4.5402 C   0  0  0  0  0  0  0  0  0  0  0  0
   10.5847  -16.9221   -4.3692 C   0  0  0  0  0  0  0  0  0  0  0  0
    9.2531  -17.3013   -4.4407 C   0  0  0  0  0  0  0  0  0  0  0  0
    8.2590  -16.3339   -4.6709 C   0  0  0  0  0  0  0  0  0  0  0  0
    8.5524  -14.9602   -4.5275 C   0  0  0  0  0  0  0  0  0  0  0  0
    7.6066  -13.8969   -4.5475 C   0  0  0  0  0  0  0  0  0  0  0  0
    5.6956  -11.4298   -4.0024 C   0  0  0  0  0  0  0  0  0  0  0  0
    4.9655  -10.2321   -3.8822 C   0  0  0  0  0  0  0  0  0  0  0  0
    1.2162   -5.0979   -7.4883 C   0  0  0  0  0  0  0  0  0  0  0  0
   -0.1001   -4.8671   -7.7258 N   0  0  0  0  0  0  0  0  0  0  0  0
   -3.7039   -4.2742   -8.4346 H   0  0  0  0  0  0  0  0  0  0  0  0
   -2.0601   -4.6908   -8.9176 H   0  0  0  0  0  0  0  0  0  0  0  0
   -1.0102   -4.3224   -4.4987 H   0  0  0  0  0  0  0  0  0  0  0  0
    1.3621   -4.7467   -4.1261 H   0  0  0  0  0  0  0  0  0  0  0  0
    3.8006   -4.3229   -6.2415 H   0  0  0  0  0  0  0  0  0  0  0  0
    3.6544   -5.9419   -6.9140 H   0  0  0  0  0  0  0  0  0  0  0  0
    4.5801   -7.5659   -5.7247 H   0  0  0  0  0  0  0  0  0  0  0  0
    4.0222   -7.8778   -2.9491 H   0  0  0  0  0  0  0  0  0  0  0  0
    5.5296   -6.9917   -3.1000 H   0  0  0  0  0  0  0  0  0  0  0  0
    7.5302   -8.0052   -4.0855 H   0  0  0  0  0  0  0  0  0  0  0  0
    8.7727  -10.0473   -4.3843 H   0  0  0  0  0  0  0  0  0  0  0  0
    9.5272  -11.5585   -3.0168 H   0  0  0  0  0  0  0  0  0  0  0  0
   11.2451  -13.2142   -3.4026 H   0  0  0  0  0  0  0  0  0  0  0  0
   11.8349  -15.2921   -4.9689 H   0  0  0  0  0  0  0  0  0  0  0  0
   11.3840  -17.6451   -4.2334 H   0  0  0  0  0  0  0  0  0  0  0  0
    8.9995  -18.3544   -4.3774 H   0  0  0  0  0  0  0  0  0  0  0  0
    7.2425  -16.6655   -4.8621 H   0  0  0  0  0  0  0  0  0  0  0  0
    6.5977  -14.1013   -4.8953 H   0  0  0  0  0  0  0  0  0  0  0  0
    5.1573  -12.3733   -3.9494 H   0  0  0  0  0  0  0  0  0  0  0  0
    3.8859  -10.2805   -3.7519 H   0  0  0  0  0  0  0  0  0  0  0  0
    1.8032   -5.2841   -8.3837 H   0  0  0  0  0  0  0  0  0  0  0  0
  1  2  1  0  0  0  0
  1 31  1  0  0  0  0
  1 32  1  0  0  0  0
  2  3  2  0  0  0  0
  2  4  1  0  0  0  0
  4  5  2  0  0  0  0
  4 30  1  0  0  0  0
  5  6  1  0  0  0  0
  5 33  1  0  0  0  0
  6  7  2  0  0  0  0
  6 34  1  0  0  0  0
  7  8  1  0  0  0  0
  7 29  1  0  0  0  0
  8  9  1  0  0  0  0
  8 35  1  0  0  0  0
  8 36  1  0  0  0  0
  9 10  2  0  0  0  0
  9 11  1  0  0  0  0
 11 12  1  0  0  0  0
 11 37  1  0  0  0  0
 12 13  1  0  0  0  0
 12 38  1  0  0  0  0
 12 39  1  0  0  0  0
 13 14  2  0  0  0  0
 13 28  1  0  0  0  0
 14 15  1  0  0  0  0
 14 40  1  0  0  0  0
 15 16  2  0  0  0  0
 15 41  1  0  0  0  0
 16 17  1  0  0  0  0
 16 27  1  0  0  0  0
 17 18  2  0  0  0  0
 17 26  1  0  0  0  0
 18 19  1  0  0  0  0
 18 42  1  0  0  0  0
 19 20  2  0  0  0  0
 19 43  1  0  0  0  0
 20 21  1  0  0  0  0
 20 25  1  0  0  0  0
 21 22  2  0  0  0  0
 21 44  1  0  0  0  0
 22 23  1  0  0  0  0
 22 45  1  0  0  0  0
 23 24  2  0  0  0  0
 23 46  1  0  0  0  0
 24 25  1  0  0  0  0
 24 47  1  0  0  0  0
 25 26  2  0  0  0  0
 26 48  1  0  0  0  0
 27 28  2  0  0  0  0
 27 49  1  0  0  0  0
 28 50  1  0  0  0  0
 29 30  2  0  0  0  0
 29 51  1  0  0  0  0
M  END
$$$$
