
 OpenBabel01122422453D

 48 51  0  0  0  0  0  0  0  0999 V2000
    2.7418    0.7427   -0.5451 O   0  0  0  0  0  0  0  0  0  0  0  0
    2.2293   -0.0559    0.2343 C   0  0  0  0  0  0  0  0  0  0  0  0
    0.7151   -0.1031    0.5003 C   0  0  0  0  0  0  0  0  0  0  0  0
   -0.0034   -0.9839   -0.4477 N   0  0  0  0  0  0  0  0  0  0  0  0
   -0.1924   -2.3281   -0.1675 C   0  0  0  0  0  0  0  0  0  0  0  0
   -0.8588   -3.2056   -0.9223 C   0  0  0  0  0  0  0  0  0  0  0  0
   -1.4617   -2.7276   -2.1785 C   0  0  0  0  0  0  0  0  0  0  0  0
   -2.0587   -3.5020   -2.9074 O   0  0  0  0  0  0  0  0  0  0  0  0
   -1.3253   -1.2809   -2.4918 C   0  0  0  0  0  0  0  0  0  0  0  0
   -1.9523   -0.7932   -3.6498 C   0  0  0  0  0  0  0  0  0  0  0  0
   -1.8770    0.5592   -3.9588 C   0  0  0  0  0  0  0  0  0  0  0  0
   -1.1704    1.4124   -3.1183 C   0  0  0  0  0  0  0  0  0  0  0  0
   -0.5332    0.9181   -1.9701 C   0  0  0  0  0  0  0  0  0  0  0  0
   -0.5985   -0.4400   -1.6153 C   0  0  0  0  0  0  0  0  0  0  0  0
    2.9659   -0.9538    0.9850 N   0  0  0  0  0  0  0  0  0  0  0  0
    4.4110   -1.0548    0.9159 C   0  0  0  0  0  0  0  0  0  0  0  0
    4.8467   -2.4276    0.4517 C   0  0  0  0  0  0  0  0  0  0  0  0
    5.0310   -2.6669   -0.9044 C   0  0  0  0  0  0  0  0  0  0  0  0
    5.5116   -3.9117   -1.3149 C   0  0  0  0  0  0  0  0  0  0  0  0
    5.8113   -4.2390   -2.6221 O   0  0  0  0  0  0  0  0  0  0  0  0
    6.2829   -3.2525   -3.4663 C   0  0  0  0  0  0  0  0  0  0  0  0
    7.0636   -2.1775   -3.0336 C   0  0  0  0  0  0  0  0  0  0  0  0
    7.3687   -1.1556   -3.9158 C   0  0  0  0  0  0  0  0  0  0  0  0
    8.0081   -0.0714   -3.4620 F   0  0  0  0  0  0  0  0  0  0  0  0
    6.9928   -1.2265   -5.2513 C   0  0  0  0  0  0  0  0  0  0  0  0
    6.3081   -2.3502   -5.7144 C   0  0  0  0  0  0  0  0  0  0  0  0
    5.9499   -3.3644   -4.8175 C   0  0  0  0  0  0  0  0  0  0  0  0
    5.6870   -4.9173   -0.3730 C   0  0  0  0  0  0  0  0  0  0  0  0
    5.4315   -4.6122    0.9528 C   0  0  0  0  0  0  0  0  0  0  0  0
    5.0258   -3.3958    1.3872 N   0  0  0  0  0  0  0  0  0  0  0  0
    0.3272    0.9204    0.5203 H   0  0  0  0  0  0  0  0  0  0  0  0
    0.5536   -0.4651    1.5242 H   0  0  0  0  0  0  0  0  0  0  0  0
    0.2449   -2.6630    0.7694 H   0  0  0  0  0  0  0  0  0  0  0  0
   -0.9954   -4.2445   -0.6614 H   0  0  0  0  0  0  0  0  0  0  0  0
   -2.5030   -1.4679   -4.3033 H   0  0  0  0  0  0  0  0  0  0  0  0
   -2.3637    0.9449   -4.8506 H   0  0  0  0  0  0  0  0  0  0  0  0
   -1.1067    2.4720   -3.3541 H   0  0  0  0  0  0  0  0  0  0  0  0
    0.0137    1.6422   -1.3731 H   0  0  0  0  0  0  0  0  0  0  0  0
    2.5029   -1.6160    1.5932 H   0  0  0  0  0  0  0  0  0  0  0  0
    4.7920   -0.8814    1.9284 H   0  0  0  0  0  0  0  0  0  0  0  0
    4.8358   -0.2768    0.2733 H   0  0  0  0  0  0  0  0  0  0  0  0
    4.8371   -1.8687   -1.6140 H   0  0  0  0  0  0  0  0  0  0  0  0
    7.3960   -2.0922   -2.0067 H   0  0  0  0  0  0  0  0  0  0  0  0
    7.2379   -0.4073   -5.9195 H   0  0  0  0  0  0  0  0  0  0  0  0
    6.0338   -2.4251   -6.7617 H   0  0  0  0  0  0  0  0  0  0  0  0
    5.3917   -4.2287   -5.1780 H   0  0  0  0  0  0  0  0  0  0  0  0
    6.0229   -5.9059   -0.6634 H   0  0  0  0  0  0  0  0  0  0  0  0
    5.5596   -5.3636    1.7277 H   0  0  0  0  0  0  0  0  0  0  0  0
  1  2  2  0  0  0  0
  2  3  1  0  0  0  0
  2 15  1  0  0  0  0
  3  4  1  0  0  0  0
  3 31  1  0  0  0  0
  3 32  1  0  0  0  0
  4  5  1  0  0  0  0
  4 14  1  0  0  0  0
  5  6  2  0  0  0  0
  5 33  1  0  0  0  0
  6  7  1  0  0  0  0
  6 34  1  0  0  0  0
  7  8  2  0  0  0  0
  7  9  1  0  0  0  0
  9 10  2  0  0  0  0
  9 14  1  0  0  0  0
 10 11  1  0  0  0  0
 10 35  1  0  0  0  0
 11 12  2  0  0  0  0
 11 36  1  0  0  0  0
 12 13  1  0  0  0  0
 12 37  1  0  0  0  0
 13 14  2  0  0  0  0
 13 38  1  0  0  0  0
 15 16  1  0  0  0  0
 15 39  1  0  0  0  0
 16 17  1  0  0  0  0
 16 40  1  0  0  0  0
 16 41  1  0  0  0  0
 17 18  2  0  0  0  0
 17 30  1  0  0  0  0
 18 19  1  0  0  0  0
 18 42  1  0  0  0  0
 19 20  1  0  0  0  0
 19 28  2  0  0  0  0
 20 21  1  0  0  0  0
 21 22  2  0  0  0  0
 21 27  1  0  0  0  0
 22 23  1  0  0  0  0
 22 43  1  0  0  0  0
 23 24  1  0  0  0  0
 23 25  2  0  0  0  0
 25 26  1  0  0  0  0
 25 44  1  0  0  0  0
 26 27  2  0  0  0  0
 26 45  1  0  0  0  0
 27 46  1  0  0  0  0
 28 29  1  0  0  0  0
 28 47  1  0  0  0  0
 29 30  2  0  0  0  0
 29 48  1  0  0  0  0
M  END
$$$$
