
 OpenBabel01122422463D

 51 54  0  0  0  0  0  0  0  0999 V2000
    1.0615    0.9905    0.4927 C   0  0  0  0  0  0  0  0  0  0  0  0
    2.0413    0.3339   -0.3013 O   0  0  0  0  0  0  0  0  0  0  0  0
    2.8612    1.1275   -1.0524 C   0  0  0  0  0  0  0  0  0  0  0  0
    2.7419    2.5011   -1.2098 C   0  0  0  0  0  0  0  0  0  0  0  0
    3.6594    3.1852   -2.0096 C   0  0  0  0  0  0  0  0  0  0  0  0
    4.7059    2.5386   -2.6476 C   0  0  0  0  0  0  0  0  0  0  0  0
    5.5296    3.2982   -3.3816 N   0  0  0  0  0  0  0  0  0  0  0  0
    6.5384    2.7195   -4.0681 C   0  0  0  0  0  0  0  0  0  0  0  0
    7.4054    3.6324   -4.8446 C   0  0  0  0  0  0  0  0  0  0  0  0
    7.5405    4.9870   -4.4824 C   0  0  0  0  0  0  0  0  0  0  0  0
    8.3732    5.8561   -5.1956 C   0  0  0  0  0  0  0  0  0  0  0  0
    9.0919    5.3887   -6.2910 C   0  0  0  0  0  0  0  0  0  0  0  0
    8.9748    4.0576   -6.6749 C   0  0  0  0  0  0  0  0  0  0  0  0
    8.1393    3.1930   -5.9619 C   0  0  0  0  0  0  0  0  0  0  0  0
    6.7612    1.3551   -3.9887 C   0  0  0  0  0  0  0  0  0  0  0  0
    5.9904    0.5722   -3.1247 C   0  0  0  0  0  0  0  0  0  0  0  0
    6.4143   -0.8551   -2.8942 C   0  0  0  0  0  0  0  0  0  0  0  0
    5.5545   -1.7322   -2.9549 O   0  0  0  0  0  0  0  0  0  0  0  0
    7.7771   -1.1427   -2.6471 N   0  0  0  0  0  0  0  0  0  0  0  0
    8.2025   -2.5421   -2.5803 C   0  0  0  0  0  0  0  0  0  0  0  0
    8.7595   -0.1892   -2.4320 C   0  0  0  0  0  0  0  0  0  0  0  0
    8.7429    0.5982   -1.3445 C   0  0  0  0  0  0  0  0  0  0  0  0
    9.6537    1.7012   -1.2098 C   0  0  0  0  0  0  0  0  0  0  0  0
   10.4963    2.0019   -2.2030 C   0  0  0  0  0  0  0  0  0  0  0  0
   10.5726    1.2233   -3.3427 N   0  0  0  0  0  0  0  0  0  0  0  0
   11.4247    1.6459   -4.4425 C   0  0  0  0  0  0  0  0  0  0  0  0
    9.7953    0.0733   -3.5167 C   0  0  0  0  0  0  0  0  0  0  0  0
    9.8500   -0.6363   -4.5209 O   0  0  0  0  0  0  0  0  0  0  0  0
    4.8648    1.1477   -2.4852 C   0  0  0  0  0  0  0  0  0  0  0  0
    3.9057    0.4581   -1.6987 C   0  0  0  0  0  0  0  0  0  0  0  0
    0.6058    0.2430    1.1478 H   0  0  0  0  0  0  0  0  0  0  0  0
    0.2729    1.4135   -0.1381 H   0  0  0  0  0  0  0  0  0  0  0  0
    1.5096    1.7597    1.1331 H   0  0  0  0  0  0  0  0  0  0  0  0
    1.9508    3.0731   -0.7375 H   0  0  0  0  0  0  0  0  0  0  0  0
    3.5539    4.2611   -2.1361 H   0  0  0  0  0  0  0  0  0  0  0  0
    6.9904    5.3776   -3.6269 H   0  0  0  0  0  0  0  0  0  0  0  0
    8.4529    6.8979   -4.8959 H   0  0  0  0  0  0  0  0  0  0  0  0
    9.7344    6.0624   -6.8514 H   0  0  0  0  0  0  0  0  0  0  0  0
    9.5262    3.6856   -7.5344 H   0  0  0  0  0  0  0  0  0  0  0  0
    8.0661    2.1641   -6.3067 H   0  0  0  0  0  0  0  0  0  0  0  0
    7.5619    0.9010   -4.5573 H   0  0  0  0  0  0  0  0  0  0  0  0
    7.3637   -3.1998   -2.3335 H   0  0  0  0  0  0  0  0  0  0  0  0
    8.9609   -2.6569   -1.7970 H   0  0  0  0  0  0  0  0  0  0  0  0
    8.6222   -2.8473   -3.5423 H   0  0  0  0  0  0  0  0  0  0  0  0
    8.0089    0.4453   -0.5584 H   0  0  0  0  0  0  0  0  0  0  0  0
    9.5947    2.3138   -0.3170 H   0  0  0  0  0  0  0  0  0  0  0  0
   11.1441    2.8720   -2.1444 H   0  0  0  0  0  0  0  0  0  0  0  0
   12.0292    2.5179   -4.1734 H   0  0  0  0  0  0  0  0  0  0  0  0
   10.7920    1.9016   -5.2978 H   0  0  0  0  0  0  0  0  0  0  0  0
   12.0834    0.8235   -4.7352 H   0  0  0  0  0  0  0  0  0  0  0  0
    3.9516   -0.6247   -1.5965 H   0  0  0  0  0  0  0  0  0  0  0  0
  1  2  1  0  0  0  0
  1 31  1  0  0  0  0
  1 32  1  0  0  0  0
  1 33  1  0  0  0  0
  2  3  1  0  0  0  0
  3  4  2  0  0  0  0
  3 30  1  0  0  0  0
  4  5  1  0  0  0  0
  4 34  1  0  0  0  0
  5  6  2  0  0  0  0
  5 35  1  0  0  0  0
  6  7  1  0  0  0  0
  6 29  1  0  0  0  0
  7  8  2  0  0  0  0
  8  9  1  0  0  0  0
  8 15  1  0  0  0  0
  9 10  2  0  0  0  0
  9 14  1  0  0  0  0
 10 11  1  0  0  0  0
 10 36  1  0  0  0  0
 11 12  2  0  0  0  0
 11 37  1  0  0  0  0
 12 13  1  0  0  0  0
 12 38  1  0  0  0  0
 13 14  2  0  0  0  0
 13 39  1  0  0  0  0
 14 40  1  0  0  0  0
 15 16  2  0  0  0  0
 15 41  1  0  0  0  0
 16 17  1  0  0  0  0
 16 29  1  0  0  0  0
 17 18  2  0  0  0  0
 17 19  1  0  0  0  0
 19 20  1  0  0  0  0
 19 21  1  0  0  0  0
 20 42  1  0  0  0  0
 20 43  1  0  0  0  0
 20 44  1  0  0  0  0
 21 22  2  0  0  0  0
 21 27  1  0  0  0  0
 22 23  1  0  0  0  0
 22 45  1  0  0  0  0
 23 24  2  0  0  0  0
 23 46  1  0  0  0  0
 24 25  1  0  0  0  0
 24 47  1  0  0  0  0
 25 26  1  0  0  0  0
 25 27  1  0  0  0  0
 26 48  1  0  0  0  0
 26 49  1  0  0  0  0
 26 50  1  0  0  0  0
 27 28  2  0  0  0  0
 29 30  2  0  0  0  0
 30 51  1  0  0  0  0
M  END
$$$$
