
 OpenBabel01122422513D

 45 48  0  0  0  0  0  0  0  0999 V2000
    1.3571    0.7714    0.4950 O   0  0  0  0  0  0  0  0  0  0  0  0
    2.4006    0.2755    0.1068 C   0  0  0  0  0  0  0  0  0  0  0  0
    2.8624    0.1625   -1.1893 N   0  0  0  0  0  0  0  0  0  0  0  0
    2.2516    0.6655   -2.3525 C   0  0  0  0  0  0  0  0  0  0  0  0
    1.1695    1.5405   -2.3474 C   0  0  0  0  0  0  0  0  0  0  0  0
    0.6208    1.9830   -3.5543 C   0  0  0  0  0  0  0  0  0  0  0  0
    1.1564    1.5646   -4.7721 C   0  0  0  0  0  0  0  0  0  0  0  0
    0.5556    2.0829   -5.8834 O   0  0  0  0  0  0  0  0  0  0  0  0
    1.3465    2.0557   -7.0715 C   0  0  0  0  0  0  0  0  0  0  0  0
    0.8603    3.0804   -8.0628 C   0  0  0  0  0  0  0  0  0  0  0  0
    0.1292    4.2153   -7.6869 C   0  0  0  0  0  0  0  0  0  0  0  0
   -0.2307    5.1754   -8.6407 C   0  0  0  0  0  0  0  0  0  0  0  0
    0.1111    4.9944   -9.9660 C   0  0  0  0  0  0  0  0  0  0  0  0
    0.8614    3.8828  -10.3625 C   0  0  0  0  0  0  0  0  0  0  0  0
    1.2230    2.9400   -9.4070 C   0  0  0  0  0  0  0  0  0  0  0  0
    1.9291    1.8682   -9.7897 F   0  0  0  0  0  0  0  0  0  0  0  0
    2.2310    0.6774   -4.7805 C   0  0  0  0  0  0  0  0  0  0  0  0
    2.7881    0.2480   -3.5757 C   0  0  0  0  0  0  0  0  0  0  0  0
    3.2999   -0.3647    1.1145 C   0  0  0  0  0  0  0  0  0  0  0  0
    4.6934   -0.3888    0.9078 C   0  0  0  0  0  0  0  0  0  0  0  0
    5.5065   -1.1382    1.7492 C   0  0  0  0  0  0  0  0  0  0  0  0
    4.9250   -1.7493    2.8531 C   0  0  0  0  0  0  0  0  0  0  0  0
    5.7039   -2.5582    3.7795 C   0  0  0  0  0  0  0  0  0  0  0  0
    6.5202   -3.3708    3.3670 O   0  0  0  0  0  0  0  0  0  0  0  0
    5.4083   -2.3035    5.0989 N   0  0  0  0  0  0  0  0  0  0  0  0
    4.1107   -2.0231    5.5026 N   0  0  0  0  0  0  0  0  0  0  0  0
    3.2335   -1.7811    4.5761 C   0  0  0  0  0  0  0  0  0  0  0  0
    3.5965   -1.5337    3.1845 C   0  0  0  0  0  0  0  0  0  0  0  0
    2.7433   -0.9147    2.2778 C   0  0  0  0  0  0  0  0  0  0  0  0
    3.6681   -0.4264   -1.3547 H   0  0  0  0  0  0  0  0  0  0  0  0
    0.7367    1.9094   -1.4216 H   0  0  0  0  0  0  0  0  0  0  0  0
   -0.2250    2.6661   -3.5394 H   0  0  0  0  0  0  0  0  0  0  0  0
    1.2821    1.0553   -7.5135 H   0  0  0  0  0  0  0  0  0  0  0  0
    2.3928    2.3095   -6.8563 H   0  0  0  0  0  0  0  0  0  0  0  0
   -0.1438    4.3772   -6.6510 H   0  0  0  0  0  0  0  0  0  0  0  0
   -0.7923    6.0541   -8.3319 H   0  0  0  0  0  0  0  0  0  0  0  0
   -0.1566    5.7504  -10.7141 H   0  0  0  0  0  0  0  0  0  0  0  0
    1.1390    3.7415  -11.4002 H   0  0  0  0  0  0  0  0  0  0  0  0
    2.6508    0.2944   -5.7052 H   0  0  0  0  0  0  0  0  0  0  0  0
    3.6344   -0.4329   -3.6127 H   0  0  0  0  0  0  0  0  0  0  0  0
    5.1533    0.1828    0.1054 H   0  0  0  0  0  0  0  0  0  0  0  0
    6.5802   -1.1955    1.5875 H   0  0  0  0  0  0  0  0  0  0  0  0
    6.0752   -1.6607    5.5247 H   0  0  0  0  0  0  0  0  0  0  0  0
    2.1834   -1.6431    4.8768 H   0  0  0  0  0  0  0  0  0  0  0  0
    1.6798   -0.8174    2.4813 H   0  0  0  0  0  0  0  0  0  0  0  0
  1  2  2  0  0  0  0
  2  3  1  0  0  0  0
  2 19  1  0  0  0  0
  3  4  1  0  0  0  0
  3 30  1  0  0  0  0
  4  5  2  0  0  0  0
  4 18  1  0  0  0  0
  5  6  1  0  0  0  0
  5 31  1  0  0  0  0
  6  7  2  0  0  0  0
  6 32  1  0  0  0  0
  7  8  1  0  0  0  0
  7 17  1  0  0  0  0
  8  9  1  0  0  0  0
  9 10  1  0  0  0  0
  9 33  1  0  0  0  0
  9 34  1  0  0  0  0
 10 11  2  0  0  0  0
 10 15  1  0  0  0  0
 11 12  1  0  0  0  0
 11 35  1  0  0  0  0
 12 13  2  0  0  0  0
 12 36  1  0  0  0  0
 13 14  1  0  0  0  0
 13 37  1  0  0  0  0
 14 15  2  0  0  0  0
 14 38  1  0  0  0  0
 15 16  1  0  0  0  0
 17 18  2  0  0  0  0
 17 39  1  0  0  0  0
 18 40  1  0  0  0  0
 19 20  2  0  0  0  0
 19 29  1  0  0  0  0
 20 21  1  0  0  0  0
 20 41  1  0  0  0  0
 21 22  2  0  0  0  0
 21 42  1  0  0  0  0
 22 23  1  0  0  0  0
 22 28  1  0  0  0  0
 23 24  2  0  0  0  0
 23 25  1  0  0  0  0
 25 26  1  0  0  0  0
 25 43  1  0  0  0  0
 26 27  2  0  0  0  0
 27 28  1  0  0  0  0
 27 44  1  0  0  0  0
 28 29  2  0  0  0  0
 29 45  1  0  0  0  0
M  END
$$$$
