
 OpenBabel01122422513D

 43 46  0  0  0  0  0  0  0  0999 V2000
    1.0756    0.6894   -0.4062 O   0  0  0  0  0  0  0  0  0  0  0  0
    2.1941    0.2153   -0.2386 C   0  0  0  0  0  0  0  0  0  0  0  0
    2.8479   -0.6036   -1.1347 N   0  0  0  0  0  0  0  0  0  0  0  0
    2.2654   -1.0286   -2.3100 C   0  0  0  0  0  0  0  0  0  0  0  0
    2.2787   -2.3391   -2.7322 C   0  0  0  0  0  0  0  0  0  0  0  0
    2.8580   -3.5186   -2.0723 C   0  0  0  0  0  0  0  0  0  0  0  0
    3.7103   -4.1813   -2.8909 F   0  0  0  0  0  0  0  0  0  0  0  0
    3.5992   -3.1536   -0.9856 F   0  0  0  0  0  0  0  0  0  0  0  0
    1.5957   -2.3623   -3.9345 N   0  0  0  0  0  0  0  0  0  0  0  0
    1.1532   -3.4639   -4.7217 C   0  0  0  0  0  0  0  0  0  0  0  0
    0.8130   -4.6898   -4.1482 C   0  0  0  0  0  0  0  0  0  0  0  0
    0.3588   -5.6996   -4.9795 C   0  0  0  0  0  0  0  0  0  0  0  0
    0.2286   -5.5738   -6.3160 N   0  0  0  0  0  0  0  0  0  0  0  0
    0.5450   -4.3699   -6.8421 C   0  0  0  0  0  0  0  0  0  0  0  0
    0.9917   -3.2962   -6.0982 C   0  0  0  0  0  0  0  0  0  0  0  0
    1.2881   -1.1007   -4.3504 N   0  0  0  0  0  0  0  0  0  0  0  0
    1.5893   -0.3191   -3.3113 C   0  0  0  0  0  0  0  0  0  0  0  0
    2.9077    0.4545    1.0451 C   0  0  0  0  0  0  0  0  0  0  0  0
    2.5194    1.5390    1.8382 C   0  0  0  0  0  0  0  0  0  0  0  0
    3.1709    1.7946    3.0520 C   0  0  0  0  0  0  0  0  0  0  0  0
    4.2055    0.9645    3.5274 C   0  0  0  0  0  0  0  0  0  0  0  0
    4.8634    1.2039    4.8208 C   0  0  0  0  0  0  0  0  0  0  0  0
    4.2011    1.7243    5.9234 C   0  0  0  0  0  0  0  0  0  0  0  0
    4.7674    1.9512    7.1304 N   0  0  0  0  0  0  0  0  0  0  0  0
    6.0636    1.6326    7.2309 C   0  0  0  0  0  0  0  0  0  0  0  0
    6.8220    1.1204    6.2545 N   0  0  0  0  0  0  0  0  0  0  0  0
    6.1962    0.9205    5.0739 C   0  0  0  0  0  0  0  0  0  0  0  0
    4.5754   -0.1247    2.7140 C   0  0  0  0  0  0  0  0  0  0  0  0
    3.9380   -0.3626    1.5052 C   0  0  0  0  0  0  0  0  0  0  0  0
    4.3545   -1.4183    0.7855 F   0  0  0  0  0  0  0  0  0  0  0  0
    3.5905   -1.1981   -0.7698 H   0  0  0  0  0  0  0  0  0  0  0  0
    2.1023   -4.2097   -1.6978 H   0  0  0  0  0  0  0  0  0  0  0  0
    0.8053   -4.8790   -3.0859 H   0  0  0  0  0  0  0  0  0  0  0  0
    0.0569   -6.6625   -4.5744 H   0  0  0  0  0  0  0  0  0  0  0  0
    0.4173   -4.2919   -7.9220 H   0  0  0  0  0  0  0  0  0  0  0  0
    1.2329   -2.3567   -6.5942 H   0  0  0  0  0  0  0  0  0  0  0  0
    1.3735    0.7407   -3.3649 H   0  0  0  0  0  0  0  0  0  0  0  0
    1.7110    2.1952    1.5127 H   0  0  0  0  0  0  0  0  0  0  0  0
    2.8558    2.6678    3.6212 H   0  0  0  0  0  0  0  0  0  0  0  0
    3.1447    1.9789    5.8848 H   0  0  0  0  0  0  0  0  0  0  0  0
    6.5399    1.8033    8.1905 H   0  0  0  0  0  0  0  0  0  0  0  0
    6.8470    0.5086    4.3042 H   0  0  0  0  0  0  0  0  0  0  0  0
    5.3562   -0.8166    3.0194 H   0  0  0  0  0  0  0  0  0  0  0  0
  1  2  2  0  0  0  0
  2  3  1  0  0  0  0
  2 18  1  0  0  0  0
  3  4  1  0  0  0  0
  3 31  1  0  0  0  0
  4  5  2  0  0  0  0
  4 17  1  0  0  0  0
  5  6  1  0  0  0  0
  5  9  1  0  0  0  0
  6  7  1  0  0  0  0
  6  8  1  0  0  0  0
  6 32  1  0  0  0  0
  9 10  1  0  0  0  0
  9 16  1  0  0  0  0
 10 11  2  0  0  0  0
 10 15  1  0  0  0  0
 11 12  1  0  0  0  0
 11 33  1  0  0  0  0
 12 13  2  0  0  0  0
 12 34  1  0  0  0  0
 13 14  1  0  0  0  0
 14 15  2  0  0  0  0
 14 35  1  0  0  0  0
 15 36  1  0  0  0  0
 16 17  2  0  0  0  0
 17 37  1  0  0  0  0
 18 19  2  0  0  0  0
 18 29  1  0  0  0  0
 19 20  1  0  0  0  0
 19 38  1  0  0  0  0
 20 21  2  0  0  0  0
 20 39  1  0  0  0  0
 21 22  1  0  0  0  0
 21 28  1  0  0  0  0
 22 23  2  0  0  0  0
 22 27  1  0  0  0  0
 23 24  1  0  0  0  0
 23 40  1  0  0  0  0
 24 25  2  0  0  0  0
 25 26  1  0  0  0  0
 25 41  1  0  0  0  0
 26 27  2  0  0  0  0
 27 42  1  0  0  0  0
 28 29  2  0  0  0  0
 28 43  1  0  0  0  0
 29 30  1  0  0  0  0
M  END
$$$$
