
 OpenBabel01122422513D

 51 54  0  0  1  0  0  0  0  0999 V2000
    0.9839   -0.1037    0.1816 O   0  0  0  0  0  0  0  0  0  0  0  0
    2.2100   -0.1156    0.1976 C   0  0  0  0  0  0  0  0  0  0  0  0
    2.9336   -1.1445   -0.3569 N   0  0  0  0  0  0  0  0  0  0  0  0
    2.2462   -2.2310   -1.0495 C   0  0  0  0  0  0  0  0  0  0  0  0
    2.1322   -1.9598   -2.5656 C   0  0  3  0  0  0  0  0  0  0  0  0
    3.4727   -1.8558   -3.0800 O   0  0  0  0  0  0  0  0  0  0  0  0
    1.3319   -3.0158   -3.3134 C   0  0  0  0  0  0  0  0  0  0  0  0
   -0.0121   -3.2437   -2.9772 C   0  0  0  0  0  0  0  0  0  0  0  0
   -0.7817   -4.1852   -3.6716 C   0  0  0  0  0  0  0  0  0  0  0  0
   -0.2322   -4.9216   -4.7314 C   0  0  0  0  0  0  0  0  0  0  0  0
   -0.9916   -5.8633   -5.4500 C   0  0  0  0  0  0  0  0  0  0  0  0
   -0.4285   -6.5778   -6.5095 C   0  0  0  0  0  0  0  0  0  0  0  0
    0.8994   -6.3632   -6.8625 C   0  0  0  0  0  0  0  0  0  0  0  0
    1.6647   -5.4304   -6.1612 C   0  0  0  0  0  0  0  0  0  0  0  0
    1.1129   -4.6997   -5.0949 C   0  0  0  0  0  0  0  0  0  0  0  0
    1.8704   -3.7466   -4.3881 C   0  0  0  0  0  0  0  0  0  0  0  0
    3.0075    0.8245    0.8076 N   0  0  0  0  0  0  0  0  0  0  0  0
    2.5911    1.8472    1.6358 C   0  0  0  0  0  0  0  0  0  0  0  0
    1.3978    1.9081    2.2488 C   0  0  0  0  0  0  0  0  0  0  0  0
    1.0416    3.0156    3.0914 C   0  0  0  0  0  0  0  0  0  0  0  0
    1.8713    4.0546    3.2201 C   0  0  0  0  0  0  0  0  0  0  0  0
    3.1193    4.0792    2.6094 N   0  0  0  0  0  0  0  0  0  0  0  0
    3.9343    5.2528    2.6847 C   0  0  0  0  0  0  0  0  0  0  0  0
    3.3774    6.5110    2.4065 C   0  0  0  0  0  0  0  0  0  0  0  0
    4.1814    7.6531    2.3872 C   0  0  0  0  0  0  0  0  0  0  0  0
    5.5374    7.5553    2.6917 C   0  0  0  0  0  0  0  0  0  0  0  0
    6.0903    6.3175    3.0146 C   0  0  0  0  0  0  0  0  0  0  0  0
    5.2955    5.1690    2.9976 C   0  0  0  0  0  0  0  0  0  0  0  0
    3.5795    2.9796    1.8529 C   0  0  0  0  0  0  0  0  0  0  0  0
    4.6786    2.8849    1.2984 O   0  0  0  0  0  0  0  0  0  0  0  0
    3.8821   -0.9473   -0.6466 H   0  0  0  0  0  0  0  0  0  0  0  0
    1.2633   -2.3838   -0.5914 H   0  0  0  0  0  0  0  0  0  0  0  0
    2.8433   -3.1317   -0.8673 H   0  0  0  0  0  0  0  0  0  0  0  0
    1.6594   -0.9855   -2.7416 H   0  0  0  0  0  0  0  0  0  0  0  0
    3.9062   -2.7073   -2.8991 H   0  0  0  0  0  0  0  0  0  0  0  0
   -0.4856   -2.6744   -2.1782 H   0  0  0  0  0  0  0  0  0  0  0  0
   -1.8214   -4.3289   -3.3834 H   0  0  0  0  0  0  0  0  0  0  0  0
   -2.0332   -6.0410   -5.1909 H   0  0  0  0  0  0  0  0  0  0  0  0
   -1.0291   -7.2983   -7.0585 H   0  0  0  0  0  0  0  0  0  0  0  0
    1.3399   -6.9171   -7.6875 H   0  0  0  0  0  0  0  0  0  0  0  0
    2.6998   -5.2733   -6.4568 H   0  0  0  0  0  0  0  0  0  0  0  0
    2.8938   -3.5625   -4.7080 H   0  0  0  0  0  0  0  0  0  0  0  0
    3.9693    0.9073    0.4948 H   0  0  0  0  0  0  0  0  0  0  0  0
    0.6568    1.1212    2.1495 H   0  0  0  0  0  0  0  0  0  0  0  0
    0.0872    2.9855    3.6079 H   0  0  0  0  0  0  0  0  0  0  0  0
    1.6104    4.8991    3.8537 H   0  0  0  0  0  0  0  0  0  0  0  0
    2.3304    6.6043    2.1284 H   0  0  0  0  0  0  0  0  0  0  0  0
    3.7539    8.6142    2.1129 H   0  0  0  0  0  0  0  0  0  0  0  0
    6.1662    8.4416    2.6677 H   0  0  0  0  0  0  0  0  0  0  0  0
    7.1450    6.2403    3.2651 H   0  0  0  0  0  0  0  0  0  0  0  0
    5.7453    4.2115    3.2479 H   0  0  0  0  0  0  0  0  0  0  0  0
  1  2  2  0  0  0  0
  2  3  1  0  0  0  0
  2 17  1  0  0  0  0
  3  4  1  0  0  0  0
  3 31  1  0  0  0  0
  4  5  1  0  0  0  0
  4 32  1  0  0  0  0
  4 33  1  0  0  0  0
  5  6  1  0  0  0  0
  5  7  1  0  0  0  0
  5 34  1  0  0  0  0
  6 35  1  0  0  0  0
  7  8  2  0  0  0  0
  7 16  1  0  0  0  0
  8  9  1  0  0  0  0
  8 36  1  0  0  0  0
  9 10  2  0  0  0  0
  9 37  1  0  0  0  0
 10 11  1  0  0  0  0
 10 15  1  0  0  0  0
 11 12  2  0  0  0  0
 11 38  1  0  0  0  0
 12 13  1  0  0  0  0
 12 39  1  0  0  0  0
 13 14  2  0  0  0  0
 13 40  1  0  0  0  0
 14 15  1  0  0  0  0
 14 41  1  0  0  0  0
 15 16  2  0  0  0  0
 16 42  1  0  0  0  0
 17 18  1  0  0  0  0
 17 43  1  0  0  0  0
 18 19  2  0  0  0  0
 18 29  1  0  0  0  0
 19 20  1  0  0  0  0
 19 44  1  0  0  0  0
 20 21  2  0  0  0  0
 20 45  1  0  0  0  0
 21 22  1  0  0  0  0
 21 46  1  0  0  0  0
 22 23  1  0  0  0  0
 22 29  1  0  0  0  0
 23 24  2  0  0  0  0
 23 28  1  0  0  0  0
 24 25  1  0  0  0  0
 24 47  1  0  0  0  0
 25 26  2  0  0  0  0
 25 48  1  0  0  0  0
 26 27  1  0  0  0  0
 26 49  1  0  0  0  0
 27 28  2  0  0  0  0
 27 50  1  0  0  0  0
 28 51  1  0  0  0  0
 29 30  2  0  0  0  0
M  END
$$$$
