
 OpenBabel01122422513D

 40 43  0  0  0  0  0  0  0  0999 V2000
    0.9817   -0.0779   -0.2685 O   0  0  0  0  0  0  0  0  0  0  0  0
    2.1860    0.0523   -0.0581 C   0  0  0  0  0  0  0  0  0  0  0  0
    2.8219   -0.2346    1.1240 N   0  0  0  0  0  0  0  0  0  0  0  0
    2.1938   -0.7173    2.2588 C   0  0  0  0  0  0  0  0  0  0  0  0
    0.9848   -1.2770    2.1699 N   0  0  0  0  0  0  0  0  0  0  0  0
    0.3936   -1.7199    3.2935 C   0  0  0  0  0  0  0  0  0  0  0  0
   -0.9179   -2.3560    3.0918 C   0  0  0  0  0  0  0  0  0  0  0  0
   -1.1848   -3.0939    1.9227 C   0  0  0  0  0  0  0  0  0  0  0  0
   -2.4347   -3.6663    1.7061 C   0  0  0  0  0  0  0  0  0  0  0  0
   -2.6588   -4.3628    0.5846 F   0  0  0  0  0  0  0  0  0  0  0  0
   -3.4545   -3.5228    2.6324 C   0  0  0  0  0  0  0  0  0  0  0  0
   -3.2015   -2.8056    3.7905 C   0  0  0  0  0  0  0  0  0  0  0  0
   -4.1761   -2.6513    4.6983 F   0  0  0  0  0  0  0  0  0  0  0  0
   -1.9573   -2.2295    4.0318 C   0  0  0  0  0  0  0  0  0  0  0  0
    0.9962   -1.5806    4.5245 C   0  0  0  0  0  0  0  0  0  0  0  0
    2.2426   -1.0018    4.5221 C   0  0  0  0  0  0  0  0  0  0  0  0
    2.8729   -0.5890    3.4075 N   0  0  0  0  0  0  0  0  0  0  0  0
    3.0165    0.6358   -1.1622 C   0  0  0  0  0  0  0  0  0  0  0  0
    2.3123    1.0829   -2.2967 C   0  0  0  0  0  0  0  0  0  0  0  0
    2.9791    1.6371   -3.3810 C   0  0  0  0  0  0  0  0  0  0  0  0
    4.3634    1.7468   -3.3378 C   0  0  0  0  0  0  0  0  0  0  0  0
    5.0754    1.3303   -2.2015 C   0  0  0  0  0  0  0  0  0  0  0  0
    6.4650    1.4971   -2.1421 C   0  0  0  0  0  0  0  0  0  0  0  0
    7.1618    1.1292   -0.9992 C   0  0  0  0  0  0  0  0  0  0  0  0
    6.4396    0.5693    0.0309 C   0  0  0  0  0  0  0  0  0  0  0  0
    7.0450    0.1634    1.1828 O   0  0  0  0  0  0  0  0  0  0  0  0
    5.1123    0.3815    0.0087 N   0  0  0  0  0  0  0  0  0  0  0  0
    4.4115    0.7607   -1.0858 C   0  0  0  0  0  0  0  0  0  0  0  0
    3.8071   -0.0088    1.2359 H   0  0  0  0  0  0  0  0  0  0  0  0
   -0.4150   -3.2188    1.1607 H   0  0  0  0  0  0  0  0  0  0  0  0
   -4.4306   -3.9545    2.4506 H   0  0  0  0  0  0  0  0  0  0  0  0
   -1.8229   -1.6607    4.9451 H   0  0  0  0  0  0  0  0  0  0  0  0
    0.5393   -1.9237    5.4419 H   0  0  0  0  0  0  0  0  0  0  0  0
    2.7887   -0.8512    5.4487 H   0  0  0  0  0  0  0  0  0  0  0  0
    1.2240    1.0074   -2.3329 H   0  0  0  0  0  0  0  0  0  0  0  0
    2.4204    1.9863   -4.2461 H   0  0  0  0  0  0  0  0  0  0  0  0
    4.8797    2.1807   -4.1926 H   0  0  0  0  0  0  0  0  0  0  0  0
    7.0078    1.9343   -2.9768 H   0  0  0  0  0  0  0  0  0  0  0  0
    8.2304    1.2972   -0.9297 H   0  0  0  0  0  0  0  0  0  0  0  0
    8.0024    0.2505    1.0737 H   0  0  0  0  0  0  0  0  0  0  0  0
  1  2  2  0  0  0  0
  2  3  1  0  0  0  0
  2 18  1  0  0  0  0
  3  4  1  0  0  0  0
  3 29  1  0  0  0  0
  4  5  2  0  0  0  0
  4 17  1  0  0  0  0
  5  6  1  0  0  0  0
  6  7  1  0  0  0  0
  6 15  2  0  0  0  0
  7  8  2  0  0  0  0
  7 14  1  0  0  0  0
  8  9  1  0  0  0  0
  8 30  1  0  0  0  0
  9 10  1  0  0  0  0
  9 11  2  0  0  0  0
 11 12  1  0  0  0  0
 11 31  1  0  0  0  0
 12 13  1  0  0  0  0
 12 14  2  0  0  0  0
 14 32  1  0  0  0  0
 15 16  1  0  0  0  0
 15 33  1  0  0  0  0
 16 17  2  0  0  0  0
 16 34  1  0  0  0  0
 18 19  2  0  0  0  0
 18 28  1  0  0  0  0
 19 20  1  0  0  0  0
 19 35  1  0  0  0  0
 20 21  2  0  0  0  0
 20 36  1  0  0  0  0
 21 22  1  0  0  0  0
 21 37  1  0  0  0  0
 22 23  2  0  0  0  0
 22 28  1  0  0  0  0
 23 24  1  0  0  0  0
 23 38  1  0  0  0  0
 24 25  2  0  0  0  0
 24 39  1  0  0  0  0
 25 26  1  0  0  0  0
 25 27  1  0  0  0  0
 26 40  1  0  0  0  0
 27 28  2  0  0  0  0
M  END
$$$$
