
 OpenBabel01122422513D

 47 50  0  0  0  0  0  0  0  0999 V2000
    3.9030   -0.8519    0.1896 C   0  0  0  0  0  0  0  0  0  0  0  0
    2.8890    0.0382   -0.3847 N   0  0  0  0  0  0  0  0  0  0  0  0
    3.2958    0.9739   -1.3305 C   0  0  0  0  0  0  0  0  0  0  0  0
    4.4395    0.9728   -1.8069 O   0  0  0  0  0  0  0  0  0  0  0  0
    2.3542    2.0589   -1.7855 C   0  0  0  0  0  0  0  0  0  0  0  0
    2.4554    2.4798   -3.0616 C   0  0  0  0  0  0  0  0  0  0  0  0
    1.6790    3.5942   -3.5524 C   0  0  0  0  0  0  0  0  0  0  0  0
    0.8077    4.2105   -2.7456 C   0  0  0  0  0  0  0  0  0  0  0  0
    0.6883    3.8481   -1.4152 N   0  0  0  0  0  0  0  0  0  0  0  0
   -0.1102    4.6799   -0.5152 C   0  0  0  0  0  0  0  0  0  0  0  0
   -1.5835    4.3358   -0.4127 C   0  0  0  0  0  0  0  0  0  0  0  0
   -2.5495    5.2986   -0.7293 C   0  0  0  0  0  0  0  0  0  0  0  0
   -3.9013    5.0586   -0.4742 C   0  0  0  0  0  0  0  0  0  0  0  0
   -4.7992    6.0136   -0.7561 F   0  0  0  0  0  0  0  0  0  0  0  0
   -4.3146    3.8660    0.0999 C   0  0  0  0  0  0  0  0  0  0  0  0
   -3.3682    2.8855    0.3958 C   0  0  0  0  0  0  0  0  0  0  0  0
   -2.0109    3.1180    0.1396 C   0  0  0  0  0  0  0  0  0  0  0  0
    1.5165    2.8742   -0.8496 C   0  0  0  0  0  0  0  0  0  0  0  0
    1.6291    2.7292    0.3624 O   0  0  0  0  0  0  0  0  0  0  0  0
    1.5405   -0.4220   -0.2701 C   0  0  0  0  0  0  0  0  0  0  0  0
    0.7201    0.1011    0.7275 C   0  0  0  0  0  0  0  0  0  0  0  0
   -0.5554   -0.2819    0.9550 N   0  0  0  0  0  0  0  0  0  0  0  0
   -0.9641   -1.3815    0.2978 C   0  0  0  0  0  0  0  0  0  0  0  0
   -0.1366   -2.1474   -0.5197 C   0  0  0  0  0  0  0  0  0  0  0  0
   -0.4695   -3.4642   -0.8662 C   0  0  0  0  0  0  0  0  0  0  0  0
    0.4049   -4.2304   -1.6327 C   0  0  0  0  0  0  0  0  0  0  0  0
    1.5450   -3.6433   -2.1764 C   0  0  0  0  0  0  0  0  0  0  0  0
    1.8779   -2.3335   -1.8426 C   0  0  0  0  0  0  0  0  0  0  0  0
    1.1049   -1.6049   -0.9117 C   0  0  0  0  0  0  0  0  0  0  0  0
    4.8007   -0.8977   -0.4325 H   0  0  0  0  0  0  0  0  0  0  0  0
    3.5290   -1.8717    0.3262 H   0  0  0  0  0  0  0  0  0  0  0  0
    4.1736   -0.4540    1.1704 H   0  0  0  0  0  0  0  0  0  0  0  0
    3.1545    2.0225   -3.7601 H   0  0  0  0  0  0  0  0  0  0  0  0
    1.8344    3.9297   -4.5751 H   0  0  0  0  0  0  0  0  0  0  0  0
    0.2187    5.0565   -3.0887 H   0  0  0  0  0  0  0  0  0  0  0  0
    0.0094    5.7230   -0.8284 H   0  0  0  0  0  0  0  0  0  0  0  0
    0.3026    4.6373    0.5014 H   0  0  0  0  0  0  0  0  0  0  0  0
   -2.2627    6.2607   -1.1413 H   0  0  0  0  0  0  0  0  0  0  0  0
   -5.3647    3.7090    0.3264 H   0  0  0  0  0  0  0  0  0  0  0  0
   -3.6769    1.9467    0.8518 H   0  0  0  0  0  0  0  0  0  0  0  0
   -1.2900    2.3522    0.4183 H   0  0  0  0  0  0  0  0  0  0  0  0
    1.0899    0.8418    1.4312 H   0  0  0  0  0  0  0  0  0  0  0  0
   -1.9951   -1.6664    0.4876 H   0  0  0  0  0  0  0  0  0  0  0  0
   -1.3639   -3.9272   -0.4556 H   0  0  0  0  0  0  0  0  0  0  0  0
    0.1990   -5.2850   -1.7983 H   0  0  0  0  0  0  0  0  0  0  0  0
    2.2001   -4.2266   -2.8181 H   0  0  0  0  0  0  0  0  0  0  0  0
    2.7899   -1.9112   -2.2588 H   0  0  0  0  0  0  0  0  0  0  0  0
  1  2  1  0  0  0  0
  1 30  1  0  0  0  0
  1 31  1  0  0  0  0
  1 32  1  0  0  0  0
  2  3  1  0  0  0  0
  2 20  1  0  0  0  0
  3  4  2  0  0  0  0
  3  5  1  0  0  0  0
  5  6  2  0  0  0  0
  5 18  1  0  0  0  0
  6  7  1  0  0  0  0
  6 33  1  0  0  0  0
  7  8  2  0  0  0  0
  7 34  1  0  0  0  0
  8  9  1  0  0  0  0
  8 35  1  0  0  0  0
  9 10  1  0  0  0  0
  9 18  1  0  0  0  0
 10 11  1  0  0  0  0
 10 36  1  0  0  0  0
 10 37  1  0  0  0  0
 11 12  2  0  0  0  0
 11 17  1  0  0  0  0
 12 13  1  0  0  0  0
 12 38  1  0  0  0  0
 13 14  1  0  0  0  0
 13 15  2  0  0  0  0
 15 16  1  0  0  0  0
 15 39  1  0  0  0  0
 16 17  2  0  0  0  0
 16 40  1  0  0  0  0
 17 41  1  0  0  0  0
 18 19  2  0  0  0  0
 20 21  2  0  0  0  0
 20 29  1  0  0  0  0
 21 22  1  0  0  0  0
 21 42  1  0  0  0  0
 22 23  2  0  0  0  0
 23 24  1  0  0  0  0
 23 43  1  0  0  0  0
 24 25  2  0  0  0  0
 24 29  1  0  0  0  0
 25 26  1  0  0  0  0
 25 44  1  0  0  0  0
 26 27  2  0  0  0  0
 26 45  1  0  0  0  0
 27 28  1  0  0  0  0
 27 46  1  0  0  0  0
 28 29  2  0  0  0  0
 28 47  1  0  0  0  0
M  END
$$$$
