
 OpenBabel01122422513D

 47 50  0  0  0  0  0  0  0  0999 V2000
    2.6321   -2.4515    0.5803 C   0  0  0  0  0  0  0  0  0  0  0  0
    3.3616   -1.1791    0.7819 C   0  0  0  0  0  0  0  0  0  0  0  0
    4.7002   -0.9139    0.5767 C   0  0  0  0  0  0  0  0  0  0  0  0
    4.9172    0.4115    0.9001 N   0  0  0  0  0  0  0  0  0  0  0  0
    6.1330    1.1542    0.8149 C   0  0  0  0  0  0  0  0  0  0  0  0
    7.2960    0.6000    0.2728 C   0  0  0  0  0  0  0  0  0  0  0  0
    8.4604    1.3759    0.1541 C   0  0  0  0  0  0  0  0  0  0  0  0
    8.4775    2.7105    0.5928 C   0  0  0  0  0  0  0  0  0  0  0  0
    9.7134    3.5303    0.3985 C   0  0  0  0  0  0  0  0  0  0  0  0
   10.4928    3.2564   -0.5057 O   0  0  0  0  0  0  0  0  0  0  0  0
    9.9473    4.5311    1.3489 N   0  0  0  0  0  0  0  0  0  0  0  0
   11.0314    5.4027    1.2830 C   0  0  0  0  0  0  0  0  0  0  0  0
   11.3274    6.2009    0.2317 C   0  0  0  0  0  0  0  0  0  0  0  0
   10.4312    6.1818   -0.9959 C   0  0  0  0  0  0  0  0  0  0  0  0
    9.6878    6.1659   -2.0143 N   0  0  0  0  0  0  0  0  0  0  0  0
   12.5705    7.0106    0.1924 C   0  0  0  0  0  0  0  0  0  0  0  0
   12.7755    7.7575   -0.7635 O   0  0  0  0  0  0  0  0  0  0  0  0
   13.4138    6.8748    1.3118 N   0  0  0  0  0  0  0  0  0  0  0  0
   14.6315    7.6180    1.3365 C   0  0  0  0  0  0  0  0  0  0  0  0
   14.9417    8.3972    2.4584 C   0  0  0  0  0  0  0  0  0  0  0  0
   16.1165    9.1458    2.4915 C   0  0  0  0  0  0  0  0  0  0  0  0
   17.0090    9.0907    1.4228 C   0  0  0  0  0  0  0  0  0  0  0  0
   16.7158    8.3060    0.3077 C   0  0  0  0  0  0  0  0  0  0  0  0
   15.5231    7.5828    0.2563 C   0  0  0  0  0  0  0  0  0  0  0  0
   13.0491    6.0948    2.4027 C   0  0  0  0  0  0  0  0  0  0  0  0
   11.9038    5.4052    2.4332 C   0  0  0  0  0  0  0  0  0  0  0  0
    7.3165    3.2615    1.1401 C   0  0  0  0  0  0  0  0  0  0  0  0
    6.1509    2.4905    1.2485 C   0  0  0  0  0  0  0  0  0  0  0  0
    3.7713    0.9993    1.3310 N   0  0  0  0  0  0  0  0  0  0  0  0
    2.8412    0.0499    1.2289 C   0  0  0  0  0  0  0  0  0  0  0  0
    3.3192   -3.2705    0.3444 H   0  0  0  0  0  0  0  0  0  0  0  0
    1.9168   -2.3591   -0.2430 H   0  0  0  0  0  0  0  0  0  0  0  0
    2.0811   -2.7250    1.4858 H   0  0  0  0  0  0  0  0  0  0  0  0
    5.4950   -1.5563    0.2337 H   0  0  0  0  0  0  0  0  0  0  0  0
    7.3328   -0.4259   -0.0890 H   0  0  0  0  0  0  0  0  0  0  0  0
    9.3484    0.9416   -0.3000 H   0  0  0  0  0  0  0  0  0  0  0  0
    9.5852    4.3071    2.2687 H   0  0  0  0  0  0  0  0  0  0  0  0
   14.2394    8.4788    3.2833 H   0  0  0  0  0  0  0  0  0  0  0  0
   16.3272    9.7825    3.3468 H   0  0  0  0  0  0  0  0  0  0  0  0
   17.9262    9.6711    1.4506 H   0  0  0  0  0  0  0  0  0  0  0  0
   17.4130    8.2620   -0.5255 H   0  0  0  0  0  0  0  0  0  0  0  0
   15.3118    6.9753   -0.6210 H   0  0  0  0  0  0  0  0  0  0  0  0
   13.7600    6.0241    3.2217 H   0  0  0  0  0  0  0  0  0  0  0  0
   11.6777    4.7676    3.2821 H   0  0  0  0  0  0  0  0  0  0  0  0
    7.2793    4.3070    1.4436 H   0  0  0  0  0  0  0  0  0  0  0  0
    5.2537    2.9537    1.6584 H   0  0  0  0  0  0  0  0  0  0  0  0
    1.8189    0.2902    1.4926 H   0  0  0  0  0  0  0  0  0  0  0  0
  1  2  1  0  0  0  0
  1 31  1  0  0  0  0
  1 32  1  0  0  0  0
  1 33  1  0  0  0  0
  2  3  2  0  0  0  0
  2 30  1  0  0  0  0
  3  4  1  0  0  0  0
  3 34  1  0  0  0  0
  4  5  1  0  0  0  0
  4 29  1  0  0  0  0
  5  6  2  0  0  0  0
  5 28  1  0  0  0  0
  6  7  1  0  0  0  0
  6 35  1  0  0  0  0
  7  8  2  0  0  0  0
  7 36  1  0  0  0  0
  8  9  1  0  0  0  0
  8 27  1  0  0  0  0
  9 10  2  0  0  0  0
  9 11  1  0  0  0  0
 11 12  1  0  0  0  0
 11 37  1  0  0  0  0
 12 13  2  0  0  0  0
 12 26  1  0  0  0  0
 13 14  1  0  0  0  0
 13 16  1  0  0  0  0
 14 15  3  0  0  0  0
 16 17  2  0  0  0  0
 16 18  1  0  0  0  0
 18 19  1  0  0  0  0
 18 25  1  0  0  0  0
 19 20  2  0  0  0  0
 19 24  1  0  0  0  0
 20 21  1  0  0  0  0
 20 38  1  0  0  0  0
 21 22  2  0  0  0  0
 21 39  1  0  0  0  0
 22 23  1  0  0  0  0
 22 40  1  0  0  0  0
 23 24  2  0  0  0  0
 23 41  1  0  0  0  0
 24 42  1  0  0  0  0
 25 26  2  0  0  0  0
 25 43  1  0  0  0  0
 26 44  1  0  0  0  0
 27 28  2  0  0  0  0
 27 45  1  0  0  0  0
 28 46  1  0  0  0  0
 29 30  2  0  0  0  0
 30 47  1  0  0  0  0
M  END
$$$$
