
 OpenBabel01122422513D

 56 59  0  0  0  0  0  0  0  0999 V2000
    0.5034    6.0242    4.9811 C   0  0  0  0  0  0  0  0  0  0  0  0
   -0.8154    5.5879    4.4149 C   0  0  0  0  0  0  0  0  0  0  0  0
   -1.5597    6.4373    3.5903 C   0  0  0  0  0  0  0  0  0  0  0  0
   -2.7596    6.0016    3.0224 C   0  0  0  0  0  0  0  0  0  0  0  0
   -3.2441    4.7117    3.2753 C   0  0  0  0  0  0  0  0  0  0  0  0
   -4.5048    4.2261    2.5940 C   0  0  0  0  0  0  0  0  0  0  0  0
   -4.2353    3.5536    1.3202 N   0  0  0  0  0  0  0  0  0  0  0  0
   -3.9801    2.1933    1.3243 C   0  0  0  0  0  0  0  0  0  0  0  0
   -3.7427    1.5289    0.1901 C   0  0  0  0  0  0  0  0  0  0  0  0
   -3.7113    2.2276   -1.0692 C   0  0  0  0  0  0  0  0  0  0  0  0
   -3.9129    3.5501   -1.1490 C   0  0  0  0  0  0  0  0  0  0  0  0
   -3.8220    4.3209   -2.2995 N   0  0  0  0  0  0  0  0  0  0  0  0
   -3.4943    3.8923   -3.5740 C   0  0  0  0  0  0  0  0  0  0  0  0
   -3.3319    2.7233   -3.9114 O   0  0  0  0  0  0  0  0  0  0  0  0
   -3.2677    4.9509   -4.6031 C   0  0  0  0  0  0  0  0  0  0  0  0
   -2.3837    4.6587   -5.6546 C   0  0  0  0  0  0  0  0  0  0  0  0
   -2.0924    5.6118   -6.6381 C   0  0  0  0  0  0  0  0  0  0  0  0
   -2.7043    6.8624   -6.5934 C   0  0  0  0  0  0  0  0  0  0  0  0
   -2.5051    7.8790   -7.4871 O   0  0  0  0  0  0  0  0  0  0  0  0
   -2.0095    7.5047   -8.7748 C   0  0  0  0  0  0  0  0  0  0  0  0
   -2.3914    8.5918   -9.7280 C   0  0  0  0  0  0  0  0  0  0  0  0
   -3.2317    8.4559  -10.7409 N   0  0  0  0  0  0  0  0  0  0  0  0
   -3.2971    9.6801  -11.3480 C   0  0  0  0  0  0  0  0  0  0  0  0
   -2.4727   10.5776  -10.7160 C   0  0  0  0  0  0  0  0  0  0  0  0
   -1.8991    9.8758   -9.6911 N   0  0  0  0  0  0  0  0  0  0  0  0
   -0.9397   10.4069   -8.7542 C   0  0  0  0  0  0  0  0  0  0  0  0
   -3.5939    7.1528   -5.5539 C   0  0  0  0  0  0  0  0  0  0  0  0
   -3.8867    6.2030   -4.5661 C   0  0  0  0  0  0  0  0  0  0  0  0
   -4.2334    4.3013    0.1375 C   0  0  0  0  0  0  0  0  0  0  0  0
   -4.4738    5.5095    0.0734 O   0  0  0  0  0  0  0  0  0  0  0  0
   -2.5162    3.8765    4.1347 C   0  0  0  0  0  0  0  0  0  0  0  0
   -1.3138    4.3118    4.7001 C   0  0  0  0  0  0  0  0  0  0  0  0
    0.8096    6.9963    4.5802 H   0  0  0  0  0  0  0  0  0  0  0  0
    1.2823    5.3008    4.7168 H   0  0  0  0  0  0  0  0  0  0  0  0
    0.4432    6.1071    6.0703 H   0  0  0  0  0  0  0  0  0  0  0  0
   -1.2033    7.4400    3.3658 H   0  0  0  0  0  0  0  0  0  0  0  0
   -3.3097    6.6720    2.3640 H   0  0  0  0  0  0  0  0  0  0  0  0
   -5.1830    5.0716    2.4258 H   0  0  0  0  0  0  0  0  0  0  0  0
   -5.0460    3.5382    3.2574 H   0  0  0  0  0  0  0  0  0  0  0  0
   -3.9813    1.6823    2.2823 H   0  0  0  0  0  0  0  0  0  0  0  0
   -3.5432    0.4622    0.1919 H   0  0  0  0  0  0  0  0  0  0  0  0
   -3.4778    1.6204   -1.9355 H   0  0  0  0  0  0  0  0  0  0  0  0
   -3.9277    5.3151   -2.1176 H   0  0  0  0  0  0  0  0  0  0  0  0
   -1.9076    3.6802   -5.7076 H   0  0  0  0  0  0  0  0  0  0  0  0
   -1.3827    5.3454   -7.4152 H   0  0  0  0  0  0  0  0  0  0  0  0
   -2.4641    6.5690   -9.1229 H   0  0  0  0  0  0  0  0  0  0  0  0
   -0.9198    7.3934   -8.7400 H   0  0  0  0  0  0  0  0  0  0  0  0
   -3.9318    9.8488  -12.2079 H   0  0  0  0  0  0  0  0  0  0  0  0
   -2.2601   11.6199  -10.9063 H   0  0  0  0  0  0  0  0  0  0  0  0
   -0.7698   11.4661   -8.9686 H   0  0  0  0  0  0  0  0  0  0  0  0
   -0.0028    9.8563   -8.8687 H   0  0  0  0  0  0  0  0  0  0  0  0
   -1.3347   10.2999   -7.7419 H   0  0  0  0  0  0  0  0  0  0  0  0
   -4.0829    8.1243   -5.5258 H   0  0  0  0  0  0  0  0  0  0  0  0
   -4.6161    6.4561   -3.8027 H   0  0  0  0  0  0  0  0  0  0  0  0
   -2.8702    2.8739    4.3614 H   0  0  0  0  0  0  0  0  0  0  0  0
   -0.7571    3.6418    5.3520 H   0  0  0  0  0  0  0  0  0  0  0  0
  1  2  1  0  0  0  0
  1 33  1  0  0  0  0
  1 34  1  0  0  0  0
  1 35  1  0  0  0  0
  2  3  2  0  0  0  0
  2 32  1  0  0  0  0
  3  4  1  0  0  0  0
  3 36  1  0  0  0  0
  4  5  2  0  0  0  0
  4 37  1  0  0  0  0
  5  6  1  0  0  0  0
  5 31  1  0  0  0  0
  6  7  1  0  0  0  0
  6 38  1  0  0  0  0
  6 39  1  0  0  0  0
  7  8  1  0  0  0  0
  7 29  1  0  0  0  0
  8  9  2  0  0  0  0
  8 40  1  0  0  0  0
  9 10  1  0  0  0  0
  9 41  1  0  0  0  0
 10 11  2  0  0  0  0
 10 42  1  0  0  0  0
 11 12  1  0  0  0  0
 11 29  1  0  0  0  0
 12 13  1  0  0  0  0
 12 43  1  0  0  0  0
 13 14  2  0  0  0  0
 13 15  1  0  0  0  0
 15 16  2  0  0  0  0
 15 28  1  0  0  0  0
 16 17  1  0  0  0  0
 16 44  1  0  0  0  0
 17 18  2  0  0  0  0
 17 45  1  0  0  0  0
 18 19  1  0  0  0  0
 18 27  1  0  0  0  0
 19 20  1  0  0  0  0
 20 21  1  0  0  0  0
 20 46  1  0  0  0  0
 20 47  1  0  0  0  0
 21 22  2  0  0  0  0
 21 25  1  0  0  0  0
 22 23  1  0  0  0  0
 23 24  2  0  0  0  0
 23 48  1  0  0  0  0
 24 25  1  0  0  0  0
 24 49  1  0  0  0  0
 25 26  1  0  0  0  0
 26 50  1  0  0  0  0
 26 51  1  0  0  0  0
 26 52  1  0  0  0  0
 27 28  2  0  0  0  0
 27 53  1  0  0  0  0
 28 54  1  0  0  0  0
 29 30  2  0  0  0  0
 31 32  2  0  0  0  0
 31 55  1  0  0  0  0
 32 56  1  0  0  0  0
M  END
$$$$
