
 OpenBabel01122422513D

 46 49  0  0  1  0  0  0  0  0999 V2000
    3.4155    0.5139    2.2279 O   0  0  0  0  0  0  0  0  0  0  0  0
    3.6625    0.0817    1.1053 C   0  0  0  0  0  0  0  0  0  0  0  0
    3.1651   -1.1354    0.6619 N   0  0  0  0  0  0  0  0  0  0  0  0
    2.3913   -2.0160    1.5489 C   0  0  3  0  0  0  0  0  0  0  0  0
    1.2696   -2.7900    0.7960 C   0  0  0  0  0  0  0  0  0  0  0  0
    0.2211   -1.9692    0.0722 C   0  0  0  0  0  0  0  0  0  0  0  0
   -0.3975   -2.5158   -1.0680 C   0  0  0  0  0  0  0  0  0  0  0  0
   -1.2791   -1.7522   -1.8334 C   0  0  0  0  0  0  0  0  0  0  0  0
   -1.5604   -0.4485   -1.4495 C   0  0  0  0  0  0  0  0  0  0  0  0
   -2.3477    0.3119   -2.2210 F   0  0  0  0  0  0  0  0  0  0  0  0
   -1.0317    0.0791   -0.2791 C   0  0  0  0  0  0  0  0  0  0  0  0
   -0.1607   -0.6888    0.4951 C   0  0  0  0  0  0  0  0  0  0  0  0
    3.3308   -2.9484    2.3126 C   0  0  0  0  0  0  0  0  0  0  0  0
    3.8577   -2.5244    3.5476 C   0  0  0  0  0  0  0  0  0  0  0  0
    4.6862   -3.3579    4.3033 C   0  0  0  0  0  0  0  0  0  0  0  0
    4.9986   -4.6220    3.8297 C   0  0  0  0  0  0  0  0  0  0  0  0
    5.7786   -5.4297    4.5599 F   0  0  0  0  0  0  0  0  0  0  0  0
    4.5131   -5.0618    2.6046 C   0  0  0  0  0  0  0  0  0  0  0  0
    3.6936   -4.2308    1.8440 C   0  0  0  0  0  0  0  0  0  0  0  0
    4.5544    0.8675    0.1946 C   0  0  0  0  0  0  0  0  0  0  0  0
    4.7676    0.5668   -1.1623 C   0  0  0  0  0  0  0  0  0  0  0  0
    5.6683    1.3254   -1.9547 C   0  0  0  0  0  0  0  0  0  0  0  0
    6.3794    2.4040   -1.4180 C   0  0  0  0  0  0  0  0  0  0  0  0
    6.1325    2.7078   -0.1023 C   0  0  0  0  0  0  0  0  0  0  0  0
    5.2400    1.9725    0.6827 C   0  0  0  0  0  0  0  0  0  0  0  0
    5.2123    2.5762    1.9434 N   0  0  0  0  0  0  0  0  0  0  0  0
    6.0785    3.6755    1.9546 C   0  0  0  0  0  0  0  0  0  0  0  0
    6.2948    4.4350    2.8811 O   0  0  0  0  0  0  0  0  0  0  0  0
    6.6540    3.7375    0.6759 N   0  0  0  0  0  0  0  0  0  0  0  0
    3.4748   -1.5255   -0.2138 H   0  0  0  0  0  0  0  0  0  0  0  0
    1.8979   -1.3883    2.3011 H   0  0  0  0  0  0  0  0  0  0  0  0
    0.7495   -3.4557    1.4981 H   0  0  0  0  0  0  0  0  0  0  0  0
    1.7398   -3.4288    0.0371 H   0  0  0  0  0  0  0  0  0  0  0  0
   -0.1778   -3.5348   -1.3817 H   0  0  0  0  0  0  0  0  0  0  0  0
   -1.7324   -2.1580   -2.7320 H   0  0  0  0  0  0  0  0  0  0  0  0
   -1.2859    1.0914    0.0182 H   0  0  0  0  0  0  0  0  0  0  0  0
    0.2301   -0.2558    1.4128 H   0  0  0  0  0  0  0  0  0  0  0  0
    3.6175   -1.5332    3.9315 H   0  0  0  0  0  0  0  0  0  0  0  0
    5.0809   -3.0247    5.2580 H   0  0  0  0  0  0  0  0  0  0  0  0
    4.7712   -6.0584    2.2561 H   0  0  0  0  0  0  0  0  0  0  0  0
    3.3365   -4.6032    0.8886 H   0  0  0  0  0  0  0  0  0  0  0  0
    4.2294   -0.2395   -1.6534 H   0  0  0  0  0  0  0  0  0  0  0  0
    5.8085    1.0673   -3.0035 H   0  0  0  0  0  0  0  0  0  0  0  0
    7.0751    2.9786   -2.0180 H   0  0  0  0  0  0  0  0  0  0  0  0
    4.6254    2.2752    2.7113 H   0  0  0  0  0  0  0  0  0  0  0  0
    7.3176    4.4422    0.3984 H   0  0  0  0  0  0  0  0  0  0  0  0
  1  2  2  0  0  0  0
  2  3  1  0  0  0  0
  2 20  1  0  0  0  0
  3  4  1  0  0  0  0
  3 30  1  0  0  0  0
  4  5  1  0  0  0  0
  4 13  1  0  0  0  0
  4 31  1  0  0  0  0
  5  6  1  0  0  0  0
  5 32  1  0  0  0  0
  5 33  1  0  0  0  0
  6  7  2  0  0  0  0
  6 12  1  0  0  0  0
  7  8  1  0  0  0  0
  7 34  1  0  0  0  0
  8  9  2  0  0  0  0
  8 35  1  0  0  0  0
  9 10  1  0  0  0  0
  9 11  1  0  0  0  0
 11 12  2  0  0  0  0
 11 36  1  0  0  0  0
 12 37  1  0  0  0  0
 13 14  2  0  0  0  0
 13 19  1  0  0  0  0
 14 15  1  0  0  0  0
 14 38  1  0  0  0  0
 15 16  2  0  0  0  0
 15 39  1  0  0  0  0
 16 17  1  0  0  0  0
 16 18  1  0  0  0  0
 18 19  2  0  0  0  0
 18 40  1  0  0  0  0
 19 41  1  0  0  0  0
 20 21  2  0  0  0  0
 20 25  1  0  0  0  0
 21 22  1  0  0  0  0
 21 42  1  0  0  0  0
 22 23  2  0  0  0  0
 22 43  1  0  0  0  0
 23 24  1  0  0  0  0
 23 44  1  0  0  0  0
 24 25  2  0  0  0  0
 24 29  1  0  0  0  0
 25 26  1  0  0  0  0
 26 27  1  0  0  0  0
 26 45  1  0  0  0  0
 27 28  2  0  0  0  0
 27 29  1  0  0  0  0
 29 46  1  0  0  0  0
M  END
$$$$
