
 OpenBabel01122422513D

 46 49  0  0  0  0  0  0  0  0999 V2000
    1.0455   -0.1623    0.1225 O   0  0  0  0  0  0  0  0  0  0  0  0
    2.2647   -0.0992    0.0135 C   0  0  0  0  0  0  0  0  0  0  0  0
    2.9565    0.1601   -1.1529 N   0  0  0  0  0  0  0  0  0  0  0  0
    2.3821    0.4795   -2.3717 C   0  0  0  0  0  0  0  0  0  0  0  0
    1.1398    0.9596   -2.5294 C   0  0  0  0  0  0  0  0  0  0  0  0
    0.5814    1.2004   -3.8291 C   0  0  0  0  0  0  0  0  0  0  0  0
    1.2792    0.8866   -4.9228 C   0  0  0  0  0  0  0  0  0  0  0  0
    2.5771    0.3936   -4.8523 N   0  0  0  0  0  0  0  0  0  0  0  0
    3.2419   -0.0371   -6.0431 C   0  0  0  0  0  0  0  0  0  0  0  0
    2.5700   -0.8712   -6.9513 C   0  0  0  0  0  0  0  0  0  0  0  0
    3.2266   -1.3662   -8.0793 C   0  0  0  0  0  0  0  0  0  0  0  0
    4.5450   -0.9964   -8.3339 C   0  0  0  0  0  0  0  0  0  0  0  0
    5.2079   -0.1356   -7.4604 C   0  0  0  0  0  0  0  0  0  0  0  0
    4.5645    0.3306   -6.3113 C   0  0  0  0  0  0  0  0  0  0  0  0
    3.2292    0.2321   -3.6094 C   0  0  0  0  0  0  0  0  0  0  0  0
    4.3859   -0.1630   -3.4386 O   0  0  0  0  0  0  0  0  0  0  0  0
    3.0811   -0.3738    1.2171 C   0  0  0  0  0  0  0  0  0  0  0  0
    2.6394   -1.3638    2.1005 C   0  0  0  0  0  0  0  0  0  0  0  0
    3.3120   -1.5763    3.3052 C   0  0  0  0  0  0  0  0  0  0  0  0
    4.4223   -0.7965    3.6544 C   0  0  0  0  0  0  0  0  0  0  0  0
    5.0942   -1.0747    4.8475 N   0  0  0  0  0  0  0  0  0  0  0  0
    6.4001   -0.8199    5.2514 C   0  0  0  0  0  0  0  0  0  0  0  0
    7.3105   -0.3521    4.3810 N   0  0  0  0  0  0  0  0  0  0  0  0
    8.5674   -0.1852    4.8191 C   0  0  0  0  0  0  0  0  0  0  0  0
    8.9563   -0.4565    6.1036 C   0  0  0  0  0  0  0  0  0  0  0  0
    7.9625   -0.9228    6.9274 C   0  0  0  0  0  0  0  0  0  0  0  0
    6.6911   -1.1203    6.5270 N   0  0  0  0  0  0  0  0  0  0  0  0
    4.8520    0.1842    2.7469 C   0  0  0  0  0  0  0  0  0  0  0  0
    4.1884    0.4046    1.5342 C   0  0  0  0  0  0  0  0  0  0  0  0
    3.9414   -0.1017   -1.2081 H   0  0  0  0  0  0  0  0  0  0  0  0
    0.4923    1.1685   -1.6848 H   0  0  0  0  0  0  0  0  0  0  0  0
   -0.4219    1.6085   -3.8919 H   0  0  0  0  0  0  0  0  0  0  0  0
    0.8602    1.0502   -5.9119 H   0  0  0  0  0  0  0  0  0  0  0  0
    1.5536   -1.2017   -6.7516 H   0  0  0  0  0  0  0  0  0  0  0  0
    2.7151   -2.0557   -8.7460 H   0  0  0  0  0  0  0  0  0  0  0  0
    5.0599   -1.3866   -9.2079 H   0  0  0  0  0  0  0  0  0  0  0  0
    6.2325    0.1638   -7.6646 H   0  0  0  0  0  0  0  0  0  0  0  0
    5.0985    0.9984   -5.6400 H   0  0  0  0  0  0  0  0  0  0  0  0
    1.7661   -1.9661    1.8565 H   0  0  0  0  0  0  0  0  0  0  0  0
    2.9604   -2.3616    3.9701 H   0  0  0  0  0  0  0  0  0  0  0  0
    4.5905   -1.5576    5.5758 H   0  0  0  0  0  0  0  0  0  0  0  0
    9.2693    0.1797    4.0758 H   0  0  0  0  0  0  0  0  0  0  0  0
    9.9729   -0.3158    6.4400 H   0  0  0  0  0  0  0  0  0  0  0  0
    8.1627   -1.1649    7.9669 H   0  0  0  0  0  0  0  0  0  0  0  0
    5.6954    0.8255    2.9921 H   0  0  0  0  0  0  0  0  0  0  0  0
    4.5218    1.2085    0.8863 H   0  0  0  0  0  0  0  0  0  0  0  0
  1  2  2  0  0  0  0
  2  3  1  0  0  0  0
  2 17  1  0  0  0  0
  3  4  1  0  0  0  0
  3 30  1  0  0  0  0
  4  5  2  0  0  0  0
  4 15  1  0  0  0  0
  5  6  1  0  0  0  0
  5 31  1  0  0  0  0
  6  7  2  0  0  0  0
  6 32  1  0  0  0  0
  7  8  1  0  0  0  0
  7 33  1  0  0  0  0
  8  9  1  0  0  0  0
  8 15  1  0  0  0  0
  9 10  2  0  0  0  0
  9 14  1  0  0  0  0
 10 11  1  0  0  0  0
 10 34  1  0  0  0  0
 11 12  2  0  0  0  0
 11 35  1  0  0  0  0
 12 13  1  0  0  0  0
 12 36  1  0  0  0  0
 13 14  2  0  0  0  0
 13 37  1  0  0  0  0
 14 38  1  0  0  0  0
 15 16  2  0  0  0  0
 17 18  2  0  0  0  0
 17 29  1  0  0  0  0
 18 19  1  0  0  0  0
 18 39  1  0  0  0  0
 19 20  2  0  0  0  0
 19 40  1  0  0  0  0
 20 21  1  0  0  0  0
 20 28  1  0  0  0  0
 21 22  1  0  0  0  0
 21 41  1  0  0  0  0
 22 23  2  0  0  0  0
 22 27  1  0  0  0  0
 23 24  1  0  0  0  0
 24 25  2  0  0  0  0
 24 42  1  0  0  0  0
 25 26  1  0  0  0  0
 25 43  1  0  0  0  0
 26 27  2  0  0  0  0
 26 44  1  0  0  0  0
 28 29  2  0  0  0  0
 28 45  1  0  0  0  0
 29 46  1  0  0  0  0
M  END
$$$$
