
 OpenBabel01122422513D

 48 50  0  0  1  0  0  0  0  0999 V2000
    3.8297   -4.4012   -0.1999 C   0  0  0  0  0  0  0  0  0  0  0  0
    3.6987   -3.0403   -0.6108 O   0  0  0  0  0  0  0  0  0  0  0  0
    3.0379   -2.2473    0.2868 C   0  0  0  0  0  0  0  0  0  0  0  0
    2.5823   -2.6464    1.3503 O   0  0  0  0  0  0  0  0  0  0  0  0
    2.9242   -0.7840   -0.2020 C   0  0  3  0  0  0  0  0  0  0  0  0
    3.5408   -0.5065   -1.5018 N   0  0  0  0  0  0  0  0  0  0  0  0
    4.8697   -0.2092   -1.6316 C   0  0  0  0  0  0  0  0  0  0  0  0
    5.6221   -0.0526   -0.6786 O   0  0  0  0  0  0  0  0  0  0  0  0
    5.3293   -0.1023   -3.0544 C   0  0  0  0  0  0  0  0  0  0  0  0
    6.6072    0.2289   -3.2819 C   0  0  0  0  0  0  0  0  0  0  0  0
    7.0992    0.2934   -4.6722 C   0  0  0  0  0  0  0  0  0  0  0  0
    8.2744    0.5707   -4.8857 O   0  0  0  0  0  0  0  0  0  0  0  0
    6.1112   -0.0028   -5.7584 C   0  0  0  0  0  0  0  0  0  0  0  0
    6.4106    0.0011   -7.1102 O   0  0  0  0  0  0  0  0  0  0  0  0
    7.4626    0.8782   -7.5199 C   0  0  0  0  0  0  0  0  0  0  0  0
    7.2302    1.2991   -8.9541 C   0  0  0  0  0  0  0  0  0  0  0  0
    7.0495    2.6525   -9.2710 C   0  0  0  0  0  0  0  0  0  0  0  0
    6.8877    3.0603  -10.5950 C   0  0  0  0  0  0  0  0  0  0  0  0
    6.9009    2.1166  -11.6203 C   0  0  0  0  0  0  0  0  0  0  0  0
    7.0629    0.7655  -11.3188 C   0  0  0  0  0  0  0  0  0  0  0  0
    7.2234    0.3558   -9.9927 C   0  0  0  0  0  0  0  0  0  0  0  0
    4.8694   -0.3132   -5.3668 C   0  0  0  0  0  0  0  0  0  0  0  0
    4.4225   -0.3689   -4.0680 O   0  0  0  0  0  0  0  0  0  0  0  0
    1.4771   -0.3320   -0.2545 C   0  0  0  0  0  0  0  0  0  0  0  0
    1.0174    0.7235    0.5483 C   0  0  0  0  0  0  0  0  0  0  0  0
   -0.2797    1.2130    0.3816 C   0  0  0  0  0  0  0  0  0  0  0  0
   -1.1158    0.6473   -0.5772 C   0  0  0  0  0  0  0  0  0  0  0  0
   -2.3371    1.1605   -0.7705 F   0  0  0  0  0  0  0  0  0  0  0  0
   -0.6967   -0.4250   -1.3502 C   0  0  0  0  0  0  0  0  0  0  0  0
    0.5900   -0.9113   -1.1731 C   0  0  0  0  0  0  0  0  0  0  0  0
    1.0097   -1.9217   -1.9491 F   0  0  0  0  0  0  0  0  0  0  0  0
    4.4025   -4.9312   -0.9660 H   0  0  0  0  0  0  0  0  0  0  0  0
    2.8458   -4.8727   -0.1153 H   0  0  0  0  0  0  0  0  0  0  0  0
    4.3751   -4.4685    0.7465 H   0  0  0  0  0  0  0  0  0  0  0  0
    3.4693   -0.1922    0.5454 H   0  0  0  0  0  0  0  0  0  0  0  0
    3.0122   -0.7317   -2.3371 H   0  0  0  0  0  0  0  0  0  0  0  0
    7.3199    0.4399   -2.4946 H   0  0  0  0  0  0  0  0  0  0  0  0
    8.4267    0.3604   -7.4521 H   0  0  0  0  0  0  0  0  0  0  0  0
    7.4905    1.7788   -6.8938 H   0  0  0  0  0  0  0  0  0  0  0  0
    7.0432    3.4055   -8.4846 H   0  0  0  0  0  0  0  0  0  0  0  0
    6.7581    4.1142  -10.8276 H   0  0  0  0  0  0  0  0  0  0  0  0
    6.7878    2.4359  -12.6530 H   0  0  0  0  0  0  0  0  0  0  0  0
    7.0711    0.0303  -12.1192 H   0  0  0  0  0  0  0  0  0  0  0  0
    7.3527   -0.7020   -9.7728 H   0  0  0  0  0  0  0  0  0  0  0  0
    4.0771   -0.5577   -6.0627 H   0  0  0  0  0  0  0  0  0  0  0  0
    1.6701    1.1851    1.2875 H   0  0  0  0  0  0  0  0  0  0  0  0
   -0.6377    2.0473    0.9786 H   0  0  0  0  0  0  0  0  0  0  0  0
   -1.3532   -0.8570   -2.0959 H   0  0  0  0  0  0  0  0  0  0  0  0
  1  2  1  0  0  0  0
  1 32  1  0  0  0  0
  1 33  1  0  0  0  0
  1 34  1  0  0  0  0
  2  3  1  0  0  0  0
  3  4  2  0  0  0  0
  3  5  1  0  0  0  0
  5  6  1  0  0  0  0
  5 24  1  0  0  0  0
  5 35  1  0  0  0  0
  6  7  1  0  0  0  0
  6 36  1  0  0  0  0
  7  8  2  0  0  0  0
  7  9  1  0  0  0  0
  9 10  2  0  0  0  0
  9 23  1  0  0  0  0
 10 11  1  0  0  0  0
 10 37  1  0  0  0  0
 11 12  2  0  0  0  0
 11 13  1  0  0  0  0
 13 14  1  0  0  0  0
 13 22  2  0  0  0  0
 14 15  1  0  0  0  0
 15 16  1  0  0  0  0
 15 38  1  0  0  0  0
 15 39  1  0  0  0  0
 16 17  2  0  0  0  0
 16 21  1  0  0  0  0
 17 18  1  0  0  0  0
 17 40  1  0  0  0  0
 18 19  2  0  0  0  0
 18 41  1  0  0  0  0
 19 20  1  0  0  0  0
 19 42  1  0  0  0  0
 20 21  2  0  0  0  0
 20 43  1  0  0  0  0
 21 44  1  0  0  0  0
 22 23  1  0  0  0  0
 22 45  1  0  0  0  0
 24 25  2  0  0  0  0
 24 30  1  0  0  0  0
 25 26  1  0  0  0  0
 25 46  1  0  0  0  0
 26 27  2  0  0  0  0
 26 47  1  0  0  0  0
 27 28  1  0  0  0  0
 27 29  1  0  0  0  0
 29 30  2  0  0  0  0
 29 48  1  0  0  0  0
 30 31  1  0  0  0  0
M  END
$$$$
