
 OpenBabel01122422513D

 39 42  0  0  0  0  0  0  0  0999 V2000
    0.9999   -0.3220   -0.0947 O   0  0  0  0  0  0  0  0  0  0  0  0
    2.2050   -0.1573   -0.0230 C   0  0  0  0  0  0  0  0  0  0  0  0
    2.9555   -0.7297    1.0508 N   0  0  0  0  0  0  0  0  0  0  0  0
    2.3379   -1.4388    2.0717 C   0  0  0  0  0  0  0  0  0  0  0  0
    1.5519   -2.5555    1.8996 C   0  0  0  0  0  0  0  0  0  0  0  0
    1.1879   -2.9020    3.2000 C   0  0  0  0  0  0  0  0  0  0  0  0
    0.4840   -3.9507    3.6293 O   0  0  0  0  0  0  0  0  0  0  0  0
    1.6097   -2.0581    4.1289 N   0  0  0  0  0  0  0  0  0  0  0  0
    2.3486   -1.1510    3.4392 N   0  0  0  0  0  0  0  0  0  0  0  0
    2.8840   -0.0101    4.0963 C   0  0  0  0  0  0  0  0  0  0  0  0
    2.3033    0.4211    5.3008 C   0  0  0  0  0  0  0  0  0  0  0  0
    2.7448    1.5989    5.9086 C   0  0  0  0  0  0  0  0  0  0  0  0
    3.7849    2.3243    5.3322 C   0  0  0  0  0  0  0  0  0  0  0  0
    4.2018    3.4565    5.9100 F   0  0  0  0  0  0  0  0  0  0  0  0
    4.3928    1.8904    4.1656 C   0  0  0  0  0  0  0  0  0  0  0  0
    3.9397    0.7277    3.5545 C   0  0  0  0  0  0  0  0  0  0  0  0
    4.5942    0.3184    2.4569 F   0  0  0  0  0  0  0  0  0  0  0  0
    2.9465    0.7170   -0.9541 C   0  0  0  0  0  0  0  0  0  0  0  0
    4.2801    0.4590   -1.2585 C   0  0  0  0  0  0  0  0  0  0  0  0
    4.9153   -0.5510   -0.6410 F   0  0  0  0  0  0  0  0  0  0  0  0
    4.9697    1.2220   -2.2149 C   0  0  0  0  0  0  0  0  0  0  0  0
    6.2849    0.9279   -2.6075 C   0  0  0  0  0  0  0  0  0  0  0  0
    6.8981    1.6914   -3.5933 C   0  0  0  0  0  0  0  0  0  0  0  0
    6.1845    2.7436   -4.1337 C   0  0  0  0  0  0  0  0  0  0  0  0
    4.9237    3.0650   -3.7642 N   0  0  0  0  0  0  0  0  0  0  0  0
    4.3217    2.3089   -2.8348 C   0  0  0  0  0  0  0  0  0  0  0  0
    3.0057    2.5857   -2.4809 C   0  0  0  0  0  0  0  0  0  0  0  0
    2.3030    1.7933   -1.5655 C   0  0  0  0  0  0  0  0  0  0  0  0
    3.9125   -0.4200    1.2074 H   0  0  0  0  0  0  0  0  0  0  0  0
    1.3171   -3.0576    0.9728 H   0  0  0  0  0  0  0  0  0  0  0  0
    0.2360   -4.5250    2.8876 H   0  0  0  0  0  0  0  0  0  0  0  0
    1.4714   -0.1205    5.7542 H   0  0  0  0  0  0  0  0  0  0  0  0
    2.2794    1.9647    6.8200 H   0  0  0  0  0  0  0  0  0  0  0  0
    5.2181    2.4552    3.7400 H   0  0  0  0  0  0  0  0  0  0  0  0
    6.8240    0.0902   -2.1699 H   0  0  0  0  0  0  0  0  0  0  0  0
    7.9021    1.4671   -3.9374 H   0  0  0  0  0  0  0  0  0  0  0  0
    6.6144    3.3733   -4.9086 H   0  0  0  0  0  0  0  0  0  0  0  0
    2.5066    3.4304   -2.9554 H   0  0  0  0  0  0  0  0  0  0  0  0
    1.2631    2.0278   -1.3429 H   0  0  0  0  0  0  0  0  0  0  0  0
  1  2  2  0  0  0  0
  2  3  1  0  0  0  0
  2 18  1  0  0  0  0
  3  4  1  0  0  0  0
  3 29  1  0  0  0  0
  4  5  2  0  0  0  0
  4  9  1  0  0  0  0
  5  6  1  0  0  0  0
  5 30  1  0  0  0  0
  6  7  1  0  0  0  0
  6  8  2  0  0  0  0
  7 31  1  0  0  0  0
  8  9  1  0  0  0  0
  9 10  1  0  0  0  0
 10 11  2  0  0  0  0
 10 16  1  0  0  0  0
 11 12  1  0  0  0  0
 11 32  1  0  0  0  0
 12 13  2  0  0  0  0
 12 33  1  0  0  0  0
 13 14  1  0  0  0  0
 13 15  1  0  0  0  0
 15 16  2  0  0  0  0
 15 34  1  0  0  0  0
 16 17  1  0  0  0  0
 18 19  2  0  0  0  0
 18 28  1  0  0  0  0
 19 20  1  0  0  0  0
 19 21  1  0  0  0  0
 21 22  2  0  0  0  0
 21 26  1  0  0  0  0
 22 23  1  0  0  0  0
 22 35  1  0  0  0  0
 23 24  2  0  0  0  0
 23 36  1  0  0  0  0
 24 25  1  0  0  0  0
 24 37  1  0  0  0  0
 25 26  2  0  0  0  0
 26 27  1  0  0  0  0
 27 28  2  0  0  0  0
 27 38  1  0  0  0  0
 28 39  1  0  0  0  0
M  END
$$$$
