
 OpenBabel01122422513D

 40 43  0  0  0  0  0  0  0  0999 V2000
    1.6291   -1.0072    1.4332 N   0  0  0  0  0  0  0  0  0  0  0  0
    2.6475   -0.7371    0.9508 C   0  0  0  0  0  0  0  0  0  0  0  0
    3.9045   -0.3957    0.3757 C   0  0  0  0  0  0  0  0  0  0  0  0
    4.7609    0.5856    0.8098 C   0  0  0  0  0  0  0  0  0  0  0  0
    5.8705    0.5468   -0.0111 N   0  0  0  0  0  0  0  0  0  0  0  0
    7.0556    1.3252    0.1023 C   0  0  0  0  0  0  0  0  0  0  0  0
    7.2319    2.1836    1.1901 C   0  0  0  0  0  0  0  0  0  0  0  0
    8.4030    2.9330    1.3164 C   0  0  0  0  0  0  0  0  0  0  0  0
    9.4163    2.8543    0.3614 C   0  0  0  0  0  0  0  0  0  0  0  0
   10.6103    3.5991    0.4477 N   0  0  0  0  0  0  0  0  0  0  0  0
   10.9609    4.4993    1.4419 C   0  0  0  0  0  0  0  0  0  0  0  0
   10.2796    4.8104    2.4134 O   0  0  0  0  0  0  0  0  0  0  0  0
   12.2889    5.0896    1.2692 C   0  0  0  0  0  0  0  0  0  0  0  0
   13.0686    4.8381    0.2050 N   0  0  0  0  0  0  0  0  0  0  0  0
   14.2409    5.5431    0.4293 O   0  0  0  0  0  0  0  0  0  0  0  0
   14.1686    6.2071    1.6204 C   0  0  0  0  0  0  0  0  0  0  0  0
   15.3453    6.9662    2.0291 C   0  0  0  0  0  0  0  0  0  0  0  0
   15.3508    7.6667    3.2508 C   0  0  0  0  0  0  0  0  0  0  0  0
   16.4756    8.3917    3.6598 C   0  0  0  0  0  0  0  0  0  0  0  0
   17.6031    8.4195    2.8498 C   0  0  0  0  0  0  0  0  0  0  0  0
   18.6783    9.1154    3.2419 F   0  0  0  0  0  0  0  0  0  0  0  0
   17.6142    7.7305    1.6451 C   0  0  0  0  0  0  0  0  0  0  0  0
   18.7043    7.7532    0.8662 F   0  0  0  0  0  0  0  0  0  0  0  0
   16.4980    7.0070    1.2311 C   0  0  0  0  0  0  0  0  0  0  0  0
   12.9365    5.9666    2.1753 C   0  0  0  0  0  0  0  0  0  0  0  0
    9.2424    1.9940   -0.7293 C   0  0  0  0  0  0  0  0  0  0  0  0
    8.0705    1.2293   -0.8595 C   0  0  0  0  0  0  0  0  0  0  0  0
    5.7215   -0.3854   -0.9906 N   0  0  0  0  0  0  0  0  0  0  0  0
    4.5446   -0.9629   -0.7316 C   0  0  0  0  0  0  0  0  0  0  0  0
    4.6693    1.2874    1.6254 H   0  0  0  0  0  0  0  0  0  0  0  0
    6.4937    2.2916    1.9780 H   0  0  0  0  0  0  0  0  0  0  0  0
    8.4825    3.5683    2.1918 H   0  0  0  0  0  0  0  0  0  0  0  0
   11.3027    3.4722   -0.2851 H   0  0  0  0  0  0  0  0  0  0  0  0
   14.4806    7.6568    3.9045 H   0  0  0  0  0  0  0  0  0  0  0  0
   16.4775    8.9303    4.6027 H   0  0  0  0  0  0  0  0  0  0  0  0
   16.5504    6.4789    0.2827 H   0  0  0  0  0  0  0  0  0  0  0  0
   12.5448    6.3328    3.1129 H   0  0  0  0  0  0  0  0  0  0  0  0
   10.0106    1.9010   -1.4936 H   0  0  0  0  0  0  0  0  0  0  0  0
    7.9655    0.5687   -1.7192 H   0  0  0  0  0  0  0  0  0  0  0  0
    4.2067   -1.7726   -1.3668 H   0  0  0  0  0  0  0  0  0  0  0  0
  1  2  3  0  0  0  0
  2  3  1  0  0  0  0
  3  4  2  0  0  0  0
  3 29  1  0  0  0  0
  4  5  1  0  0  0  0
  4 30  1  0  0  0  0
  5  6  1  0  0  0  0
  5 28  1  0  0  0  0
  6  7  2  0  0  0  0
  6 27  1  0  0  0  0
  7  8  1  0  0  0  0
  7 31  1  0  0  0  0
  8  9  2  0  0  0  0
  8 32  1  0  0  0  0
  9 10  1  0  0  0  0
  9 26  1  0  0  0  0
 10 11  1  0  0  0  0
 10 33  1  0  0  0  0
 11 12  2  0  0  0  0
 11 13  1  0  0  0  0
 13 14  2  0  0  0  0
 13 25  1  0  0  0  0
 14 15  1  0  0  0  0
 15 16  1  0  0  0  0
 16 17  1  0  0  0  0
 16 25  2  0  0  0  0
 17 18  2  0  0  0  0
 17 24  1  0  0  0  0
 18 19  1  0  0  0  0
 18 34  1  0  0  0  0
 19 20  2  0  0  0  0
 19 35  1  0  0  0  0
 20 21  1  0  0  0  0
 20 22  1  0  0  0  0
 22 23  1  0  0  0  0
 22 24  2  0  0  0  0
 24 36  1  0  0  0  0
 25 37  1  0  0  0  0
 26 27  2  0  0  0  0
 26 38  1  0  0  0  0
 27 39  1  0  0  0  0
 28 29  2  0  0  0  0
 29 40  1  0  0  0  0
M  END
$$$$
