
 OpenBabel01122422513D

 58 61  0  0  0  0  0  0  0  0999 V2000
    3.3914   -4.4769    6.0091 C   0  0  0  0  0  0  0  0  0  0  0  0
    3.7070   -4.5809    4.6246 O   0  0  0  0  0  0  0  0  0  0  0  0
    4.6902   -3.7491    4.1565 C   0  0  0  0  0  0  0  0  0  0  0  0
    5.3672   -2.7920    4.9170 C   0  0  0  0  0  0  0  0  0  0  0  0
    6.3259   -1.9718    4.3216 C   0  0  0  0  0  0  0  0  0  0  0  0
    6.6298   -2.1217    2.9711 C   0  0  0  0  0  0  0  0  0  0  0  0
    6.0191   -3.1327    2.2226 C   0  0  0  0  0  0  0  0  0  0  0  0
    6.3469   -3.3787    0.9027 O   0  0  0  0  0  0  0  0  0  0  0  0
    7.7059   -3.4273    0.5862 C   0  0  0  0  0  0  0  0  0  0  0  0
    8.5895   -3.6782    1.5865 N   0  0  0  0  0  0  0  0  0  0  0  0
    9.9007   -3.5959    1.3024 C   0  0  0  0  0  0  0  0  0  0  0  0
   10.3860   -3.3081    0.0437 C   0  0  0  0  0  0  0  0  0  0  0  0
    9.4685   -3.1140   -0.9866 C   0  0  0  0  0  0  0  0  0  0  0  0
    8.0888   -3.1918   -0.7371 C   0  0  0  0  0  0  0  0  0  0  0  0
    7.0739   -2.9023   -1.8097 C   0  0  0  0  0  0  0  0  0  0  0  0
    7.5368   -3.2336   -3.1490 N   0  0  0  0  0  0  0  0  0  0  0  0
    6.9616   -2.6071   -4.2297 C   0  0  0  0  0  0  0  0  0  0  0  0
    6.1287   -1.7160   -4.1411 O   0  0  0  0  0  0  0  0  0  0  0  0
    7.4566   -3.0830   -5.4222 N   0  0  0  0  0  0  0  0  0  0  0  0
    7.0287   -2.4353   -6.6573 C   0  0  0  0  0  0  0  0  0  0  0  0
    7.6212   -3.0789   -7.9116 C   0  0  0  0  0  0  0  0  0  0  0  0
    7.1302   -2.4097   -9.1761 C   0  0  0  0  0  0  0  0  0  0  0  0
    7.8125   -1.3125   -9.7201 C   0  0  0  0  0  0  0  0  0  0  0  0
    7.3326   -0.6656  -10.8666 C   0  0  0  0  0  0  0  0  0  0  0  0
    6.1529   -1.1045  -11.4814 C   0  0  0  0  0  0  0  0  0  0  0  0
    5.6164   -0.4373  -12.6201 N   0  0  0  0  0  0  0  0  0  0  0  0
    6.1440    0.6397  -13.3053 C   0  0  0  0  0  0  0  0  0  0  0  0
    5.2400    0.9852  -14.2822 C   0  0  0  0  0  0  0  0  0  0  0  0
    4.2017    0.0562  -14.1405 C   0  0  0  0  0  0  0  0  0  0  0  0
    4.4271   -0.8184  -13.1605 N   0  0  0  0  0  0  0  0  0  0  0  0
    5.4730   -2.2071  -10.9449 C   0  0  0  0  0  0  0  0  0  0  0  0
    5.9579   -2.8515   -9.8019 C   0  0  0  0  0  0  0  0  0  0  0  0
    5.0162   -3.9119    2.8040 C   0  0  0  0  0  0  0  0  0  0  0  0
    2.5844   -5.1829    6.2265 H   0  0  0  0  0  0  0  0  0  0  0  0
    3.0295   -3.4742    6.2619 H   0  0  0  0  0  0  0  0  0  0  0  0
    4.2517   -4.7530    6.6286 H   0  0  0  0  0  0  0  0  0  0  0  0
    5.1729   -2.6557    5.9751 H   0  0  0  0  0  0  0  0  0  0  0  0
    6.8502   -1.2269    4.9137 H   0  0  0  0  0  0  0  0  0  0  0  0
    7.3827   -1.4804    2.5220 H   0  0  0  0  0  0  0  0  0  0  0  0
   10.5659   -3.7503    2.1468 H   0  0  0  0  0  0  0  0  0  0  0  0
   11.4530   -3.2259   -0.1290 H   0  0  0  0  0  0  0  0  0  0  0  0
    9.8383   -2.8709   -1.9797 H   0  0  0  0  0  0  0  0  0  0  0  0
    6.8097   -1.8398   -1.7661 H   0  0  0  0  0  0  0  0  0  0  0  0
    6.1625   -3.4902   -1.6534 H   0  0  0  0  0  0  0  0  0  0  0  0
    7.7684   -4.2037   -3.3150 H   0  0  0  0  0  0  0  0  0  0  0  0
    8.4199   -3.3822   -5.3727 H   0  0  0  0  0  0  0  0  0  0  0  0
    7.3172   -1.3786   -6.5974 H   0  0  0  0  0  0  0  0  0  0  0  0
    5.9345   -2.4669   -6.6866 H   0  0  0  0  0  0  0  0  0  0  0  0
    7.3754   -4.1480   -7.9425 H   0  0  0  0  0  0  0  0  0  0  0  0
    8.7173   -3.0294   -7.8759 H   0  0  0  0  0  0  0  0  0  0  0  0
    8.7203   -0.9429   -9.2479 H   0  0  0  0  0  0  0  0  0  0  0  0
    7.8938    0.1859  -11.2384 H   0  0  0  0  0  0  0  0  0  0  0  0
    7.0963    1.0743  -13.0462 H   0  0  0  0  0  0  0  0  0  0  0  0
    5.3219    1.7949  -14.9928 H   0  0  0  0  0  0  0  0  0  0  0  0
    3.2864   -0.0239  -14.7132 H   0  0  0  0  0  0  0  0  0  0  0  0
    4.5548   -2.5733  -11.4022 H   0  0  0  0  0  0  0  0  0  0  0  0
    5.4028   -3.6968   -9.4004 H   0  0  0  0  0  0  0  0  0  0  0  0
    4.5032   -4.6660    2.2138 H   0  0  0  0  0  0  0  0  0  0  0  0
  1  2  1  0  0  0  0
  1 34  1  0  0  0  0
  1 35  1  0  0  0  0
  1 36  1  0  0  0  0
  2  3  1  0  0  0  0
  3  4  2  0  0  0  0
  3 33  1  0  0  0  0
  4  5  1  0  0  0  0
  4 37  1  0  0  0  0
  5  6  2  0  0  0  0
  5 38  1  0  0  0  0
  6  7  1  0  0  0  0
  6 39  1  0  0  0  0
  7  8  1  0  0  0  0
  7 33  2  0  0  0  0
  8  9  1  0  0  0  0
  9 10  2  0  0  0  0
  9 14  1  0  0  0  0
 10 11  1  0  0  0  0
 11 12  2  0  0  0  0
 11 40  1  0  0  0  0
 12 13  1  0  0  0  0
 12 41  1  0  0  0  0
 13 14  2  0  0  0  0
 13 42  1  0  0  0  0
 14 15  1  0  0  0  0
 15 16  1  0  0  0  0
 15 43  1  0  0  0  0
 15 44  1  0  0  0  0
 16 17  1  0  0  0  0
 16 45  1  0  0  0  0
 17 18  2  0  0  0  0
 17 19  1  0  0  0  0
 19 20  1  0  0  0  0
 19 46  1  0  0  0  0
 20 21  1  0  0  0  0
 20 47  1  0  0  0  0
 20 48  1  0  0  0  0
 21 22  1  0  0  0  0
 21 49  1  0  0  0  0
 21 50  1  0  0  0  0
 22 23  2  0  0  0  0
 22 32  1  0  0  0  0
 23 24  1  0  0  0  0
 23 51  1  0  0  0  0
 24 25  2  0  0  0  0
 24 52  1  0  0  0  0
 25 26  1  0  0  0  0
 25 31  1  0  0  0  0
 26 27  1  0  0  0  0
 26 30  1  0  0  0  0
 27 28  2  0  0  0  0
 27 53  1  0  0  0  0
 28 29  1  0  0  0  0
 28 54  1  0  0  0  0
 29 30  2  0  0  0  0
 29 55  1  0  0  0  0
 31 32  2  0  0  0  0
 31 56  1  0  0  0  0
 32 57  1  0  0  0  0
 33 58  1  0  0  0  0
M  END
$$$$
