
 OpenBabel01122422463D

 43 46  0  0  0  0  0  0  0  0999 V2000
    3.3066   -3.4486   -2.1458 O   0  0  0  0  0  0  0  0  0  0  0  0
    2.4855   -2.6717   -1.6547 C   0  0  0  0  0  0  0  0  0  0  0  0
    1.0516   -2.6083   -2.1429 C   0  0  0  0  0  0  0  0  0  0  0  0
    0.1428   -2.6685   -1.0258 N   0  0  0  0  0  0  0  0  0  0  0  0
   -0.0904   -1.6437   -0.1581 C   0  0  0  0  0  0  0  0  0  0  0  0
   -1.0650   -1.6822    0.5859 O   0  0  0  0  0  0  0  0  0  0  0  0
    0.8365   -0.4878   -0.1304 C   0  0  0  0  0  0  0  0  0  0  0  0
    0.2769    0.7458    0.2327 C   0  0  0  0  0  0  0  0  0  0  0  0
    1.0757    1.8870    0.3667 C   0  0  0  0  0  0  0  0  0  0  0  0
    2.4658    1.8174    0.2022 C   0  0  0  0  0  0  0  0  0  0  0  0
    3.3329    3.0137    0.3008 C   0  0  0  0  0  0  0  0  0  0  0  0
    3.0325    4.0861    1.1592 C   0  0  0  0  0  0  0  0  0  0  0  0
    3.8600    5.2152    1.2355 C   0  0  0  0  0  0  0  0  0  0  0  0
    5.0181    5.2954    0.4567 C   0  0  0  0  0  0  0  0  0  0  0  0
    5.8719    6.4994    0.5650 C   0  0  0  0  0  0  0  0  0  0  0  0
    5.9278    7.0822    1.6458 O   0  0  0  0  0  0  0  0  0  0  0  0
    6.6445    7.0308   -0.5888 C   0  0  0  0  0  0  0  0  0  0  0  0
    7.8434    7.7057   -0.3300 C   0  0  0  0  0  0  0  0  0  0  0  0
    8.6059    8.2062   -1.3860 C   0  0  0  0  0  0  0  0  0  0  0  0
    8.1735    8.0398   -2.7019 C   0  0  0  0  0  0  0  0  0  0  0  0
    6.9684    7.3894   -2.9638 C   0  0  0  0  0  0  0  0  0  0  0  0
    6.1953    6.8996   -1.9096 C   0  0  0  0  0  0  0  0  0  0  0  0
    5.3473    4.2236   -0.3646 C   0  0  0  0  0  0  0  0  0  0  0  0
    6.4846    4.2076   -1.0737 F   0  0  0  0  0  0  0  0  0  0  0  0
    4.5070    3.1184   -0.4674 C   0  0  0  0  0  0  0  0  0  0  0  0
    3.0135    0.5536   -0.1000 C   0  0  0  0  0  0  0  0  0  0  0  0
    2.2189   -0.5815   -0.3286 C   0  0  0  0  0  0  0  0  0  0  0  0
    2.9209   -1.7164   -0.7755 N   0  0  0  0  0  0  0  0  0  0  0  0
    0.8498   -3.4660   -2.7903 H   0  0  0  0  0  0  0  0  0  0  0  0
    0.8922   -1.6844   -2.7094 H   0  0  0  0  0  0  0  0  0  0  0  0
   -0.5589   -3.3975   -1.0068 H   0  0  0  0  0  0  0  0  0  0  0  0
   -0.7957    0.8259    0.4103 H   0  0  0  0  0  0  0  0  0  0  0  0
    0.5850    2.8288    0.5957 H   0  0  0  0  0  0  0  0  0  0  0  0
    2.1519    4.0563    1.7989 H   0  0  0  0  0  0  0  0  0  0  0  0
    3.5987    6.0282    1.9115 H   0  0  0  0  0  0  0  0  0  0  0  0
    8.1877    7.8369    0.6934 H   0  0  0  0  0  0  0  0  0  0  0  0
    9.5404    8.7239   -1.1815 H   0  0  0  0  0  0  0  0  0  0  0  0
    8.7737    8.4226   -3.5233 H   0  0  0  0  0  0  0  0  0  0  0  0
    6.6309    7.2627   -3.9893 H   0  0  0  0  0  0  0  0  0  0  0  0
    5.2524    6.4122   -2.1400 H   0  0  0  0  0  0  0  0  0  0  0  0
    4.7996    2.3413   -1.1686 H   0  0  0  0  0  0  0  0  0  0  0  0
    4.0940    0.4565   -0.2062 H   0  0  0  0  0  0  0  0  0  0  0  0
    3.9296   -1.7322   -0.6749 H   0  0  0  0  0  0  0  0  0  0  0  0
  1  2  2  0  0  0  0
  2  3  1  0  0  0  0
  2 28  1  0  0  0  0
  3  4  1  0  0  0  0
  3 29  1  0  0  0  0
  3 30  1  0  0  0  0
  4  5  1  0  0  0  0
  4 31  1  0  0  0  0
  5  6  2  0  0  0  0
  5  7  1  0  0  0  0
  7  8  2  0  0  0  0
  7 27  1  0  0  0  0
  8  9  1  0  0  0  0
  8 32  1  0  0  0  0
  9 10  2  0  0  0  0
  9 33  1  0  0  0  0
 10 11  1  0  0  0  0
 10 26  1  0  0  0  0
 11 12  2  0  0  0  0
 11 25  1  0  0  0  0
 12 13  1  0  0  0  0
 12 34  1  0  0  0  0
 13 14  2  0  0  0  0
 13 35  1  0  0  0  0
 14 15  1  0  0  0  0
 14 23  1  0  0  0  0
 15 16  2  0  0  0  0
 15 17  1  0  0  0  0
 17 18  2  0  0  0  0
 17 22  1  0  0  0  0
 18 19  1  0  0  0  0
 18 36  1  0  0  0  0
 19 20  2  0  0  0  0
 19 37  1  0  0  0  0
 20 21  1  0  0  0  0
 20 38  1  0  0  0  0
 21 22  2  0  0  0  0
 21 39  1  0  0  0  0
 22 40  1  0  0  0  0
 23 24  1  0  0  0  0
 23 25  2  0  0  0  0
 25 41  1  0  0  0  0
 26 27  2  0  0  0  0
 26 42  1  0  0  0  0
 27 28  1  0  0  0  0
 28 43  1  0  0  0  0
M  END
$$$$
