
 OpenBabel01122422513D

 49 52  0  0  0  0  0  0  0  0999 V2000
    0.9838    0.1491   -0.3308 O   0  0  0  0  0  0  0  0  0  0  0  0
    2.2007    0.1796   -0.1740 C   0  0  0  0  0  0  0  0  0  0  0  0
    2.8758    0.7810    0.8813 N   0  0  0  0  0  0  0  0  0  0  0  0
    2.2433    1.3449    2.0158 C   0  0  0  0  0  0  0  0  0  0  0  0
    0.9333    1.0102    2.3714 C   0  0  0  0  0  0  0  0  0  0  0  0
    0.2934    1.5734    3.4761 C   0  0  0  0  0  0  0  0  0  0  0  0
   -1.0146    1.1969    3.8653 N   0  0  0  0  0  0  0  0  0  0  0  0
   -1.6804    0.0561    3.4373 C   0  0  0  0  0  0  0  0  0  0  0  0
   -1.2096   -0.8190    2.7245 O   0  0  0  0  0  0  0  0  0  0  0  0
   -3.0207   -0.1130    3.9284 C   0  0  0  0  0  0  0  0  0  0  0  0
   -3.8440    0.5897    4.7822 C   0  0  0  0  0  0  0  0  0  0  0  0
   -5.0550   -0.0499    4.9384 N   0  0  0  0  0  0  0  0  0  0  0  0
   -4.9848   -1.1212    4.1868 C   0  0  0  0  0  0  0  0  0  0  0  0
   -3.7855   -1.1947    3.5502 N   0  0  0  0  0  0  0  0  0  0  0  0
    0.9727    2.5396    4.2173 C   0  0  0  0  0  0  0  0  0  0  0  0
    2.2993    2.8623    3.8994 C   0  0  0  0  0  0  0  0  0  0  0  0
    2.9402    2.2499    2.8157 C   0  0  0  0  0  0  0  0  0  0  0  0
    3.0244   -0.3988   -1.2625 C   0  0  0  0  0  0  0  0  0  0  0  0
    2.4650   -0.3906   -2.5494 C   0  0  0  0  0  0  0  0  0  0  0  0
    3.1471   -0.9596   -3.6196 C   0  0  0  0  0  0  0  0  0  0  0  0
    4.4027   -1.5246   -3.4129 C   0  0  0  0  0  0  0  0  0  0  0  0
    4.9904   -1.5249   -2.1356 C   0  0  0  0  0  0  0  0  0  0  0  0
    6.3574   -2.1383   -1.9281 C   0  0  0  0  0  0  0  0  0  0  0  0
    6.3232   -3.6114   -1.6032 C   0  0  0  0  0  0  0  0  0  0  0  0
    6.3942   -4.5616   -2.6213 C   0  0  0  0  0  0  0  0  0  0  0  0
    6.3207   -5.9110   -2.2890 C   0  0  0  0  0  0  0  0  0  0  0  0
    6.1764   -6.2760   -0.9567 C   0  0  0  0  0  0  0  0  0  0  0  0
    6.1234   -5.2714   -0.0056 C   0  0  0  0  0  0  0  0  0  0  0  0
    6.1980   -3.9539   -0.2961 N   0  0  0  0  0  0  0  0  0  0  0  0
    4.2785   -0.9810   -1.0517 C   0  0  0  0  0  0  0  0  0  0  0  0
    3.8649    0.9595    0.7686 H   0  0  0  0  0  0  0  0  0  0  0  0
    0.4020    0.2879    1.7676 H   0  0  0  0  0  0  0  0  0  0  0  0
   -1.4542    1.7560    4.5795 H   0  0  0  0  0  0  0  0  0  0  0  0
   -3.6440    1.5102    5.3101 H   0  0  0  0  0  0  0  0  0  0  0  0
   -5.7559   -1.8695    4.0664 H   0  0  0  0  0  0  0  0  0  0  0  0
   -3.4725   -1.9185    2.9084 H   0  0  0  0  0  0  0  0  0  0  0  0
    0.5038    3.0265    5.0673 H   0  0  0  0  0  0  0  0  0  0  0  0
    2.8359    3.5916    4.5007 H   0  0  0  0  0  0  0  0  0  0  0  0
    3.9692    2.5174    2.5902 H   0  0  0  0  0  0  0  0  0  0  0  0
    1.4808    0.0448   -2.7140 H   0  0  0  0  0  0  0  0  0  0  0  0
    2.6959   -0.9640   -4.6069 H   0  0  0  0  0  0  0  0  0  0  0  0
    4.9254   -1.9721   -4.2605 H   0  0  0  0  0  0  0  0  0  0  0  0
    6.8727   -1.6036   -1.1199 H   0  0  0  0  0  0  0  0  0  0  0  0
    6.9736   -1.9656   -2.8202 H   0  0  0  0  0  0  0  0  0  0  0  0
    6.4996   -4.2616   -3.6587 H   0  0  0  0  0  0  0  0  0  0  0  0
    6.3673   -6.6701   -3.0645 H   0  0  0  0  0  0  0  0  0  0  0  0
    6.1029   -7.3177   -0.6661 H   0  0  0  0  0  0  0  0  0  0  0  0
    6.0120   -5.5062    1.0491 H   0  0  0  0  0  0  0  0  0  0  0  0
    4.6939   -1.0552   -0.0497 H   0  0  0  0  0  0  0  0  0  0  0  0
  1  2  2  0  0  0  0
  2  3  1  0  0  0  0
  2 18  1  0  0  0  0
  3  4  1  0  0  0  0
  3 31  1  0  0  0  0
  4  5  2  0  0  0  0
  4 17  1  0  0  0  0
  5  6  1  0  0  0  0
  5 32  1  0  0  0  0
  6  7  1  0  0  0  0
  6 15  2  0  0  0  0
  7  8  1  0  0  0  0
  7 33  1  0  0  0  0
  8  9  2  0  0  0  0
  8 10  1  0  0  0  0
 10 11  2  0  0  0  0
 10 14  1  0  0  0  0
 11 12  1  0  0  0  0
 11 34  1  0  0  0  0
 12 13  2  0  0  0  0
 13 14  1  0  0  0  0
 13 35  1  0  0  0  0
 14 36  1  0  0  0  0
 15 16  1  0  0  0  0
 15 37  1  0  0  0  0
 16 17  2  0  0  0  0
 16 38  1  0  0  0  0
 17 39  1  0  0  0  0
 18 19  2  0  0  0  0
 18 30  1  0  0  0  0
 19 20  1  0  0  0  0
 19 40  1  0  0  0  0
 20 21  2  0  0  0  0
 20 41  1  0  0  0  0
 21 22  1  0  0  0  0
 21 42  1  0  0  0  0
 22 23  1  0  0  0  0
 22 30  2  0  0  0  0
 23 24  1  0  0  0  0
 23 43  1  0  0  0  0
 23 44  1  0  0  0  0
 24 25  2  0  0  0  0
 24 29  1  0  0  0  0
 25 26  1  0  0  0  0
 25 45  1  0  0  0  0
 26 27  2  0  0  0  0
 26 46  1  0  0  0  0
 27 28  1  0  0  0  0
 27 47  1  0  0  0  0
 28 29  2  0  0  0  0
 28 48  1  0  0  0  0
 30 49  1  0  0  0  0
M  END
$$$$
