
 OpenBabel01122422513D

 49 52  0  0  0  0  0  0  0  0999 V2000
    2.4821    1.0554   -0.7905 O   0  0  0  0  0  0  0  0  0  0  0  0
    2.1234    0.3922    0.1867 C   0  0  0  0  0  0  0  0  0  0  0  0
    0.6557    0.0657    0.3803 C   0  0  0  0  0  0  0  0  0  0  0  0
   -0.0197    1.0699    1.1845 N   0  0  0  0  0  0  0  0  0  0  0  0
   -0.6660    0.8320    2.3696 C   0  0  0  0  0  0  0  0  0  0  0  0
   -1.1997    2.0253    2.8065 C   0  0  0  0  0  0  0  0  0  0  0  0
   -0.8805    3.0116    1.8447 C   0  0  0  0  0  0  0  0  0  0  0  0
   -0.1616    2.3911    0.8459 C   0  0  0  0  0  0  0  0  0  0  0  0
    2.9631   -0.1316    1.1613 N   0  0  0  0  0  0  0  0  0  0  0  0
    4.3635    0.0625    1.2335 C   0  0  0  0  0  0  0  0  0  0  0  0
    5.0357    1.0718    0.5314 C   0  0  0  0  0  0  0  0  0  0  0  0
    6.4369    1.1826    0.5668 C   0  0  0  0  0  0  0  0  0  0  0  0
    7.1461    2.2242   -0.2659 C   0  0  0  0  0  0  0  0  0  0  0  0
    7.2658    3.5132    0.3964 N   0  0  0  0  0  0  0  0  0  0  0  0
    8.3866    3.8745    1.1135 C   0  0  0  0  0  0  0  0  0  0  0  0
    9.3394    3.1159    1.2642 O   0  0  0  0  0  0  0  0  0  0  0  0
    8.4740    5.2825    1.6472 C   0  0  0  0  0  0  0  0  0  0  0  0
    9.7855    5.7928    1.7203 C   0  0  0  0  0  0  0  0  0  0  0  0
   10.0279    7.0693    2.2123 C   0  0  0  0  0  0  0  0  0  0  0  0
    8.9571    7.8556    2.6059 C   0  0  0  0  0  0  0  0  0  0  0  0
    9.2283    9.0834    3.0818 F   0  0  0  0  0  0  0  0  0  0  0  0
    7.6397    7.4130    2.5441 C   0  0  0  0  0  0  0  0  0  0  0  0
    6.6754    8.2679    2.9408 N   0  0  0  0  0  0  0  0  0  0  0  0
    5.3979    7.8529    2.9513 C   0  0  0  0  0  0  0  0  0  0  0  0
    5.0213    6.5824    2.5948 C   0  0  0  0  0  0  0  0  0  0  0  0
    6.0133    5.6960    2.1749 C   0  0  0  0  0  0  0  0  0  0  0  0
    7.3740    6.0905    2.0939 C   0  0  0  0  0  0  0  0  0  0  0  0
    7.1604    0.2826    1.3575 C   0  0  0  0  0  0  0  0  0  0  0  0
    6.4984   -0.7019    2.0941 C   0  0  0  0  0  0  0  0  0  0  0  0
    5.1056   -0.8080    2.0386 C   0  0  0  0  0  0  0  0  0  0  0  0
    0.5272   -0.9155    0.8476 H   0  0  0  0  0  0  0  0  0  0  0  0
    0.1594    0.0404   -0.5962 H   0  0  0  0  0  0  0  0  0  0  0  0
   -0.7056   -0.1570    2.8069 H   0  0  0  0  0  0  0  0  0  0  0  0
   -1.7695    2.1680    3.7156 H   0  0  0  0  0  0  0  0  0  0  0  0
   -1.1518    4.0585    1.8693 H   0  0  0  0  0  0  0  0  0  0  0  0
    0.2620    2.7855   -0.0704 H   0  0  0  0  0  0  0  0  0  0  0  0
    2.5707   -0.7988    1.8148 H   0  0  0  0  0  0  0  0  0  0  0  0
    4.4827    1.7931   -0.0623 H   0  0  0  0  0  0  0  0  0  0  0  0
    6.5763    2.3957   -1.1877 H   0  0  0  0  0  0  0  0  0  0  0  0
    8.1329    1.8602   -0.5743 H   0  0  0  0  0  0  0  0  0  0  0  0
    6.6035    4.2217    0.1205 H   0  0  0  0  0  0  0  0  0  0  0  0
   10.6356    5.1906    1.3976 H   0  0  0  0  0  0  0  0  0  0  0  0
   11.0365    7.4620    2.2972 H   0  0  0  0  0  0  0  0  0  0  0  0
    4.6746    8.5952    3.2808 H   0  0  0  0  0  0  0  0  0  0  0  0
    3.9811    6.2811    2.6509 H   0  0  0  0  0  0  0  0  0  0  0  0
    5.6999    4.6813    1.9467 H   0  0  0  0  0  0  0  0  0  0  0  0
    8.2475    0.3419    1.3944 H   0  0  0  0  0  0  0  0  0  0  0  0
    7.0741   -1.3991    2.6989 H   0  0  0  0  0  0  0  0  0  0  0  0
    4.6231   -1.5995    2.6053 H   0  0  0  0  0  0  0  0  0  0  0  0
  1  2  2  0  0  0  0
  2  3  1  0  0  0  0
  2  9  1  0  0  0  0
  3  4  1  0  0  0  0
  3 31  1  0  0  0  0
  3 32  1  0  0  0  0
  4  5  1  0  0  0  0
  4  8  1  0  0  0  0
  5  6  2  0  0  0  0
  5 33  1  0  0  0  0
  6  7  1  0  0  0  0
  6 34  1  0  0  0  0
  7  8  2  0  0  0  0
  7 35  1  0  0  0  0
  8 36  1  0  0  0  0
  9 10  1  0  0  0  0
  9 37  1  0  0  0  0
 10 11  2  0  0  0  0
 10 30  1  0  0  0  0
 11 12  1  0  0  0  0
 11 38  1  0  0  0  0
 12 13  1  0  0  0  0
 12 28  2  0  0  0  0
 13 14  1  0  0  0  0
 13 39  1  0  0  0  0
 13 40  1  0  0  0  0
 14 15  1  0  0  0  0
 14 41  1  0  0  0  0
 15 16  2  0  0  0  0
 15 17  1  0  0  0  0
 17 18  2  0  0  0  0
 17 27  1  0  0  0  0
 18 19  1  0  0  0  0
 18 42  1  0  0  0  0
 19 20  2  0  0  0  0
 19 43  1  0  0  0  0
 20 21  1  0  0  0  0
 20 22  1  0  0  0  0
 22 23  2  0  0  0  0
 22 27  1  0  0  0  0
 23 24  1  0  0  0  0
 24 25  2  0  0  0  0
 24 44  1  0  0  0  0
 25 26  1  0  0  0  0
 25 45  1  0  0  0  0
 26 27  2  0  0  0  0
 26 46  1  0  0  0  0
 28 29  1  0  0  0  0
 28 47  1  0  0  0  0
 29 30  2  0  0  0  0
 29 48  1  0  0  0  0
 30 49  1  0  0  0  0
M  END
$$$$
