
 OpenBabel01122422513D

 46 49  0  0  0  0  0  0  0  0999 V2000
    1.0814   -0.4349   -0.3236 O   0  0  0  0  0  0  0  0  0  0  0  0
    2.2063   -0.0442   -0.0151 C   0  0  0  0  0  0  0  0  0  0  0  0
    2.7755    1.1597   -0.3917 N   0  0  0  0  0  0  0  0  0  0  0  0
    2.1444    2.1527   -1.1776 C   0  0  0  0  0  0  0  0  0  0  0  0
    0.7572    2.1929   -1.3852 C   0  0  0  0  0  0  0  0  0  0  0  0
    0.1830    3.1527   -2.2205 C   0  0  0  0  0  0  0  0  0  0  0  0
    0.9979    4.0853   -2.8472 C   0  0  0  0  0  0  0  0  0  0  0  0
    0.4523    4.9888   -3.6716 F   0  0  0  0  0  0  0  0  0  0  0  0
    2.3683    4.0891   -2.6296 C   0  0  0  0  0  0  0  0  0  0  0  0
    2.9438    3.1301   -1.7811 C   0  0  0  0  0  0  0  0  0  0  0  0
    3.0737   -0.9558    0.8029 C   0  0  0  0  0  0  0  0  0  0  0  0
    2.5981   -2.2366    1.0528 C   0  0  0  0  0  0  0  0  0  0  0  0
    3.3684   -3.0769    1.8335 C   0  0  0  0  0  0  0  0  0  0  0  0
    4.5762   -2.6059    2.3371 C   0  0  0  0  0  0  0  0  0  0  0  0
    4.9966   -1.3070    2.0490 C   0  0  0  0  0  0  0  0  0  0  0  0
    6.2125   -0.8111    2.4974 N   0  0  0  0  0  0  0  0  0  0  0  0
    6.7060   -1.0846    3.8472 C   0  0  0  0  0  0  0  0  0  0  0  0
    6.0809   -0.2181    4.9274 C   0  0  0  0  0  0  0  0  0  0  0  0
    5.2331    0.7959    4.6798 C   0  0  0  0  0  0  0  0  0  0  0  0
    4.6281    1.5192    5.6699 N   0  0  0  0  0  0  0  0  0  0  0  0
    4.7535    1.2612    7.0098 C   0  0  0  0  0  0  0  0  0  0  0  0
    4.1753    1.9342    7.8559 O   0  0  0  0  0  0  0  0  0  0  0  0
    5.6418    0.1328    7.3725 C   0  0  0  0  0  0  0  0  0  0  0  0
    5.7528   -0.2313    8.7221 C   0  0  0  0  0  0  0  0  0  0  0  0
    6.6300   -1.2435    9.0957 C   0  0  0  0  0  0  0  0  0  0  0  0
    7.4248   -1.8519    8.1277 C   0  0  0  0  0  0  0  0  0  0  0  0
    7.2968   -1.5014    6.7747 C   0  0  0  0  0  0  0  0  0  0  0  0
    6.3632   -0.5351    6.3625 C   0  0  0  0  0  0  0  0  0  0  0  0
    4.2660   -0.4748    1.2679 N   0  0  0  0  0  0  0  0  0  0  0  0
    3.7634    1.2620   -0.1784 H   0  0  0  0  0  0  0  0  0  0  0  0
    0.0880    1.4898   -0.8988 H   0  0  0  0  0  0  0  0  0  0  0  0
   -0.8897    3.1692   -2.3863 H   0  0  0  0  0  0  0  0  0  0  0  0
    2.9844    4.8286   -3.1291 H   0  0  0  0  0  0  0  0  0  0  0  0
    4.0186    3.1393   -1.6373 H   0  0  0  0  0  0  0  0  0  0  0  0
    1.6495   -2.5732    0.6447 H   0  0  0  0  0  0  0  0  0  0  0  0
    3.0342   -4.0889    2.0436 H   0  0  0  0  0  0  0  0  0  0  0  0
    5.1846   -3.2793    2.9297 H   0  0  0  0  0  0  0  0  0  0  0  0
    6.3182    0.1508    2.1963 H   0  0  0  0  0  0  0  0  0  0  0  0
    7.7867   -0.8977    3.8379 H   0  0  0  0  0  0  0  0  0  0  0  0
    6.5830   -2.1446    4.0954 H   0  0  0  0  0  0  0  0  0  0  0  0
    4.9516    1.0986    3.6778 H   0  0  0  0  0  0  0  0  0  0  0  0
    4.0004    2.2787    5.4326 H   0  0  0  0  0  0  0  0  0  0  0  0
    5.1496    0.2711    9.4764 H   0  0  0  0  0  0  0  0  0  0  0  0
    6.7015   -1.5436   10.1384 H   0  0  0  0  0  0  0  0  0  0  0  0
    8.1420   -2.6138    8.4269 H   0  0  0  0  0  0  0  0  0  0  0  0
    7.9447   -2.0069    6.0638 H   0  0  0  0  0  0  0  0  0  0  0  0
  1  2  2  0  0  0  0
  2  3  1  0  0  0  0
  2 11  1  0  0  0  0
  3  4  1  0  0  0  0
  3 30  1  0  0  0  0
  4  5  2  0  0  0  0
  4 10  1  0  0  0  0
  5  6  1  0  0  0  0
  5 31  1  0  0  0  0
  6  7  2  0  0  0  0
  6 32  1  0  0  0  0
  7  8  1  0  0  0  0
  7  9  1  0  0  0  0
  9 10  2  0  0  0  0
  9 33  1  0  0  0  0
 10 34  1  0  0  0  0
 11 12  2  0  0  0  0
 11 29  1  0  0  0  0
 12 13  1  0  0  0  0
 12 35  1  0  0  0  0
 13 14  2  0  0  0  0
 13 36  1  0  0  0  0
 14 15  1  0  0  0  0
 14 37  1  0  0  0  0
 15 16  1  0  0  0  0
 15 29  2  0  0  0  0
 16 17  1  0  0  0  0
 16 38  1  0  0  0  0
 17 18  1  0  0  0  0
 17 39  1  0  0  0  0
 17 40  1  0  0  0  0
 18 19  2  0  0  0  0
 18 28  1  0  0  0  0
 19 20  1  0  0  0  0
 19 41  1  0  0  0  0
 20 21  1  0  0  0  0
 20 42  1  0  0  0  0
 21 22  2  0  0  0  0
 21 23  1  0  0  0  0
 23 24  2  0  0  0  0
 23 28  1  0  0  0  0
 24 25  1  0  0  0  0
 24 43  1  0  0  0  0
 25 26  2  0  0  0  0
 25 44  1  0  0  0  0
 26 27  1  0  0  0  0
 26 45  1  0  0  0  0
 27 28  2  0  0  0  0
 27 46  1  0  0  0  0
M  END
$$$$
