
 OpenBabel01122422513D

 46 49  0  0  0  0  0  0  0  0999 V2000
    1.4071    0.1259    0.2227 O   0  0  0  0  0  0  0  0  0  0  0  0
    2.5942    0.3140   -0.0518 C   0  0  0  0  0  0  0  0  0  0  0  0
    3.2168   -0.1893   -1.1876 N   0  0  0  0  0  0  0  0  0  0  0  0
    2.5894   -1.0557   -2.1338 C   0  0  0  0  0  0  0  0  0  0  0  0
    1.2010   -1.2831   -2.1828 C   0  0  0  0  0  0  0  0  0  0  0  0
    0.6381   -2.2031   -3.0760 C   0  0  0  0  0  0  0  0  0  0  0  0
    1.4618   -2.9048   -3.9379 C   0  0  0  0  0  0  0  0  0  0  0  0
    0.9326   -3.8053   -4.7781 F   0  0  0  0  0  0  0  0  0  0  0  0
    2.8338   -2.6807   -3.9381 C   0  0  0  0  0  0  0  0  0  0  0  0
    3.3952   -1.7497   -3.0463 C   0  0  0  0  0  0  0  0  0  0  0  0
    3.4049    1.0890    0.9537 C   0  0  0  0  0  0  0  0  0  0  0  0
    2.7929    1.2463    2.2018 C   0  0  0  0  0  0  0  0  0  0  0  0
    3.3923    2.0436    3.1499 C   0  0  0  0  0  0  0  0  0  0  0  0
    4.5720    2.6815    2.8121 C   0  0  0  0  0  0  0  0  0  0  0  0
    5.1608    2.4834    1.5547 C   0  0  0  0  0  0  0  0  0  0  0  0
    6.3410    3.1882    1.3546 N   0  0  0  0  0  0  0  0  0  0  0  0
    7.4471    2.7639    0.5319 C   0  0  0  0  0  0  0  0  0  0  0  0
    7.4441    3.2879   -0.8855 C   0  0  0  0  0  0  0  0  0  0  0  0
    8.6556    3.3583   -1.6021 C   0  0  0  0  0  0  0  0  0  0  0  0
    8.6582    3.5752   -2.9832 C   0  0  0  0  0  0  0  0  0  0  0  0
    7.4409    3.6947   -3.6568 C   0  0  0  0  0  0  0  0  0  0  0  0
    7.3931    3.7847   -5.1389 C   0  0  0  0  0  0  0  0  0  0  0  0
    8.4111    3.8411   -5.8193 O   0  0  0  0  0  0  0  0  0  0  0  0
    6.0539    3.7503   -5.7838 C   0  0  0  0  0  0  0  0  0  0  0  0
    4.9706    3.7279   -5.0000 C   0  0  0  0  0  0  0  0  0  0  0  0
    5.0040    3.7663   -3.6341 N   0  0  0  0  0  0  0  0  0  0  0  0
    6.2270    3.6543   -2.9555 C   0  0  0  0  0  0  0  0  0  0  0  0
    6.2454    3.5206   -1.5693 C   0  0  0  0  0  0  0  0  0  0  0  0
    4.6087    1.6559    0.6208 N   0  0  0  0  0  0  0  0  0  0  0  0
    4.2166   -0.0294   -1.2647 H   0  0  0  0  0  0  0  0  0  0  0  0
    0.5078   -0.7521   -1.5392 H   0  0  0  0  0  0  0  0  0  0  0  0
   -0.4351   -2.3775   -3.0871 H   0  0  0  0  0  0  0  0  0  0  0  0
    3.4587   -3.2437   -4.6252 H   0  0  0  0  0  0  0  0  0  0  0  0
    4.4727   -1.6092   -3.0595 H   0  0  0  0  0  0  0  0  0  0  0  0
    1.8461    0.7611    2.4235 H   0  0  0  0  0  0  0  0  0  0  0  0
    2.9395    2.1819    4.1261 H   0  0  0  0  0  0  0  0  0  0  0  0
    5.0537    3.3243    3.5428 H   0  0  0  0  0  0  0  0  0  0  0  0
    6.3400    4.1567    1.6487 H   0  0  0  0  0  0  0  0  0  0  0  0
    7.5177    1.6712    0.5071 H   0  0  0  0  0  0  0  0  0  0  0  0
    8.3574    3.1291    1.0259 H   0  0  0  0  0  0  0  0  0  0  0  0
    9.6075    3.2011   -1.0965 H   0  0  0  0  0  0  0  0  0  0  0  0
    9.5961    3.5964   -3.5351 H   0  0  0  0  0  0  0  0  0  0  0  0
    6.0137    3.7262   -6.8622 H   0  0  0  0  0  0  0  0  0  0  0  0
    3.9704    3.6738   -5.4179 H   0  0  0  0  0  0  0  0  0  0  0  0
    4.1730    3.4682   -3.1330 H   0  0  0  0  0  0  0  0  0  0  0  0
    5.3043    3.5253   -1.0290 H   0  0  0  0  0  0  0  0  0  0  0  0
  1  2  2  0  0  0  0
  2  3  1  0  0  0  0
  2 11  1  0  0  0  0
  3  4  1  0  0  0  0
  3 30  1  0  0  0  0
  4  5  2  0  0  0  0
  4 10  1  0  0  0  0
  5  6  1  0  0  0  0
  5 31  1  0  0  0  0
  6  7  2  0  0  0  0
  6 32  1  0  0  0  0
  7  8  1  0  0  0  0
  7  9  1  0  0  0  0
  9 10  2  0  0  0  0
  9 33  1  0  0  0  0
 10 34  1  0  0  0  0
 11 12  2  0  0  0  0
 11 29  1  0  0  0  0
 12 13  1  0  0  0  0
 12 35  1  0  0  0  0
 13 14  2  0  0  0  0
 13 36  1  0  0  0  0
 14 15  1  0  0  0  0
 14 37  1  0  0  0  0
 15 16  1  0  0  0  0
 15 29  2  0  0  0  0
 16 17  1  0  0  0  0
 16 38  1  0  0  0  0
 17 18  1  0  0  0  0
 17 39  1  0  0  0  0
 17 40  1  0  0  0  0
 18 19  2  0  0  0  0
 18 28  1  0  0  0  0
 19 20  1  0  0  0  0
 19 41  1  0  0  0  0
 20 21  2  0  0  0  0
 20 42  1  0  0  0  0
 21 22  1  0  0  0  0
 21 27  1  0  0  0  0
 22 23  2  0  0  0  0
 22 24  1  0  0  0  0
 24 25  2  0  0  0  0
 24 43  1  0  0  0  0
 25 26  1  0  0  0  0
 25 44  1  0  0  0  0
 26 27  1  0  0  0  0
 26 45  1  0  0  0  0
 27 28  2  0  0  0  0
 28 46  1  0  0  0  0
M  END
$$$$
