
 OpenBabel01122422513D

 43 46  0  0  0  0  0  0  0  0999 V2000
   -3.1804    0.2332    2.3482 N   0  0  0  0  0  0  0  0  0  0  0  0
   -2.1656    0.2904    1.7856 C   0  0  0  0  0  0  0  0  0  0  0  0
   -0.9600    0.3760    1.0314 C   0  0  0  0  0  0  0  0  0  0  0  0
    0.0509   -0.5593    1.3150 C   0  0  0  0  0  0  0  0  0  0  0  0
    1.2759   -0.4853    0.6580 C   0  0  0  0  0  0  0  0  0  0  0  0
    2.2248   -1.3854    0.9340 F   0  0  0  0  0  0  0  0  0  0  0  0
    1.5260    0.5129   -0.2664 C   0  0  0  0  0  0  0  0  0  0  0  0
    0.5213    1.4326   -0.5629 C   0  0  0  0  0  0  0  0  0  0  0  0
   -0.7470    1.3629    0.0593 C   0  0  0  0  0  0  0  0  0  0  0  0
   -1.7182    2.4195   -0.3602 C   0  0  0  0  0  0  0  0  0  0  0  0
   -1.2046    3.4741   -0.7266 O   0  0  0  0  0  0  0  0  0  0  0  0
   -3.0869    2.1689   -0.3141 N   0  0  0  0  0  0  0  0  0  0  0  0
   -4.0843    3.0769   -0.7623 C   0  0  0  0  0  0  0  0  0  0  0  0
   -3.7970    4.1437   -1.6164 C   0  0  0  0  0  0  0  0  0  0  0  0
   -4.7763    5.0385   -2.0595 C   0  0  0  0  0  0  0  0  0  0  0  0
   -4.4841    6.0709   -2.9830 N   0  0  0  0  0  0  0  0  0  0  0  0
   -3.3819    6.0817   -3.8194 C   0  0  0  0  0  0  0  0  0  0  0  0
   -2.5146    5.2138   -3.8861 O   0  0  0  0  0  0  0  0  0  0  0  0
   -3.3231    7.2612   -4.7626 C   0  0  0  0  0  0  0  0  0  0  0  0
   -2.2924    7.2053   -5.6360 C   0  0  0  0  0  0  0  0  0  0  0  0
   -2.1057    8.2722   -6.5307 C   0  0  0  0  0  0  0  0  0  0  0  0
   -1.2467    8.6028   -7.5463 C   0  0  0  0  0  0  0  0  0  0  0  0
   -1.6918    9.8754   -7.9665 C   0  0  0  0  0  0  0  0  0  0  0  0
   -2.7508   10.3164   -7.2730 N   0  0  0  0  0  0  0  0  0  0  0  0
   -2.9897    9.3087   -6.4056 N   0  0  0  0  0  0  0  0  0  0  0  0
   -4.0451    9.3117   -5.4904 C   0  0  0  0  0  0  0  0  0  0  0  0
   -4.2495    8.3030   -4.6794 N   0  0  0  0  0  0  0  0  0  0  0  0
   -6.0769    4.8866   -1.5862 C   0  0  0  0  0  0  0  0  0  0  0  0
   -6.3942    3.8089   -0.7476 C   0  0  0  0  0  0  0  0  0  0  0  0
   -5.4049    2.8943   -0.3550 C   0  0  0  0  0  0  0  0  0  0  0  0
   -0.0980   -1.3452    2.0501 H   0  0  0  0  0  0  0  0  0  0  0  0
    2.4939    0.5733   -0.7565 H   0  0  0  0  0  0  0  0  0  0  0  0
    0.7323    2.2191   -1.2897 H   0  0  0  0  0  0  0  0  0  0  0  0
   -3.4487    1.3301    0.1206 H   0  0  0  0  0  0  0  0  0  0  0  0
   -2.7804    4.2806   -1.9549 H   0  0  0  0  0  0  0  0  0  0  0  0
   -5.1727    6.7986   -3.1417 H   0  0  0  0  0  0  0  0  0  0  0  0
   -1.5915    6.3755   -5.6538 H   0  0  0  0  0  0  0  0  0  0  0  0
   -0.4230    8.0164   -7.9278 H   0  0  0  0  0  0  0  0  0  0  0  0
   -1.2810   10.4958   -8.7546 H   0  0  0  0  0  0  0  0  0  0  0  0
   -4.7076   10.1915   -5.4732 H   0  0  0  0  0  0  0  0  0  0  0  0
   -6.8658    5.5661   -1.8935 H   0  0  0  0  0  0  0  0  0  0  0  0
   -7.4151    3.6742   -0.4028 H   0  0  0  0  0  0  0  0  0  0  0  0
   -5.6794    2.0694    0.2980 H   0  0  0  0  0  0  0  0  0  0  0  0
  1  2  3  0  0  0  0
  2  3  1  0  0  0  0
  3  4  2  0  0  0  0
  3  9  1  0  0  0  0
  4  5  1  0  0  0  0
  4 31  1  0  0  0  0
  5  6  1  0  0  0  0
  5  7  2  0  0  0  0
  7  8  1  0  0  0  0
  7 32  1  0  0  0  0
  8  9  2  0  0  0  0
  8 33  1  0  0  0  0
  9 10  1  0  0  0  0
 10 11  2  0  0  0  0
 10 12  1  0  0  0  0
 12 13  1  0  0  0  0
 12 34  1  0  0  0  0
 13 14  2  0  0  0  0
 13 30  1  0  0  0  0
 14 15  1  0  0  0  0
 14 35  1  0  0  0  0
 15 16  1  0  0  0  0
 15 28  2  0  0  0  0
 16 17  1  0  0  0  0
 16 36  1  0  0  0  0
 17 18  2  0  0  0  0
 17 19  1  0  0  0  0
 19 20  2  0  0  0  0
 19 27  1  0  0  0  0
 20 21  1  0  0  0  0
 20 37  1  0  0  0  0
 21 22  2  0  0  0  0
 21 25  1  0  0  0  0
 22 23  1  0  0  0  0
 22 38  1  0  0  0  0
 23 24  2  0  0  0  0
 23 39  1  0  0  0  0
 24 25  1  0  0  0  0
 25 26  1  0  0  0  0
 26 27  2  0  0  0  0
 26 40  1  0  0  0  0
 28 29  1  0  0  0  0
 28 41  1  0  0  0  0
 29 30  2  0  0  0  0
 29 42  1  0  0  0  0
 30 43  1  0  0  0  0
M  END
$$$$
