
 OpenBabel01122422513D

 49 52  0  0  0  0  0  0  0  0999 V2000
    1.1870    2.2585   -0.7184 C   0  0  0  0  0  0  0  0  0  0  0  0
    2.6145    2.0785   -0.6703 N   0  0  0  0  0  0  0  0  0  0  0  0
    3.3012    2.0770    0.5232 C   0  0  0  0  0  0  0  0  0  0  0  0
    2.7469    2.2381    1.6061 O   0  0  0  0  0  0  0  0  0  0  0  0
    4.7782    1.8596    0.4663 C   0  0  0  0  0  0  0  0  0  0  0  0
    5.4876    1.8468    1.6648 C   0  0  0  0  0  0  0  0  0  0  0  0
    6.8740    1.6205    1.6615 C   0  0  0  0  0  0  0  0  0  0  0  0
    7.5780    1.4020    0.4559 C   0  0  0  0  0  0  0  0  0  0  0  0
    9.0480    1.1285    0.5709 C   0  0  0  0  0  0  0  0  0  0  0  0
    9.4985    1.0898    1.7135 O   0  0  0  0  0  0  0  0  0  0  0  0
    9.8040    0.9674   -0.5876 N   0  0  0  0  0  0  0  0  0  0  0  0
   11.1997    0.6679   -0.6147 C   0  0  0  0  0  0  0  0  0  0  0  0
   11.8810    0.1862    0.5059 C   0  0  0  0  0  0  0  0  0  0  0  0
   13.2549   -0.0437    0.4705 C   0  0  0  0  0  0  0  0  0  0  0  0
   13.9685    0.1722   -0.7093 C   0  0  0  0  0  0  0  0  0  0  0  0
   13.3153    0.5962   -1.8791 C   0  0  0  0  0  0  0  0  0  0  0  0
   14.1424    0.8178   -3.1447 C   0  0  0  0  0  0  0  0  0  0  0  0
   13.4352    0.5378   -4.4422 C   0  0  0  0  0  0  0  0  0  0  0  0
   13.2115    1.3503   -5.4642 N   0  0  0  0  0  0  0  0  0  0  0  0
   12.4065    0.6394   -6.3362 C   0  0  0  0  0  0  0  0  0  0  0  0
   11.8025    1.0063   -7.5525 C   0  0  0  0  0  0  0  0  0  0  0  0
   10.8974    0.1119   -8.1520 C   0  0  0  0  0  0  0  0  0  0  0  0
   10.6321   -1.1347   -7.5800 C   0  0  0  0  0  0  0  0  0  0  0  0
   11.2953   -1.5517   -6.4245 C   0  0  0  0  0  0  0  0  0  0  0  0
   12.1624   -0.6359   -5.8344 C   0  0  0  0  0  0  0  0  0  0  0  0
   12.9363   -0.7110   -4.7097 N   0  0  0  0  0  0  0  0  0  0  0  0
   11.9266    0.8666   -1.8047 C   0  0  0  0  0  0  0  0  0  0  0  0
    6.8627    1.4230   -0.7431 C   0  0  0  0  0  0  0  0  0  0  0  0
    5.4795    1.6487   -0.7256 C   0  0  0  0  0  0  0  0  0  0  0  0
    4.8400    1.6465   -1.9057 F   0  0  0  0  0  0  0  0  0  0  0  0
    0.8534    2.1064   -1.7474 H   0  0  0  0  0  0  0  0  0  0  0  0
    0.9418    3.2720   -0.3912 H   0  0  0  0  0  0  0  0  0  0  0  0
    0.7029    1.5339   -0.0580 H   0  0  0  0  0  0  0  0  0  0  0  0
    3.1188    1.9740   -1.5426 H   0  0  0  0  0  0  0  0  0  0  0  0
    4.9802    2.0026    2.6164 H   0  0  0  0  0  0  0  0  0  0  0  0
    7.3941    1.6072    2.6105 H   0  0  0  0  0  0  0  0  0  0  0  0
    9.3917    1.1759   -1.4859 H   0  0  0  0  0  0  0  0  0  0  0  0
   11.3657   -0.0346    1.4369 H   0  0  0  0  0  0  0  0  0  0  0  0
   13.7574   -0.3854    1.3724 H   0  0  0  0  0  0  0  0  0  0  0  0
   15.0462    0.0100   -0.6897 H   0  0  0  0  0  0  0  0  0  0  0  0
   15.0074    0.1356   -3.1086 H   0  0  0  0  0  0  0  0  0  0  0  0
   14.5420    1.8374   -3.1377 H   0  0  0  0  0  0  0  0  0  0  0  0
   12.0001    1.9730   -8.0043 H   0  0  0  0  0  0  0  0  0  0  0  0
   10.3836    0.3962   -9.0685 H   0  0  0  0  0  0  0  0  0  0  0  0
    9.9019   -1.7974   -8.0403 H   0  0  0  0  0  0  0  0  0  0  0  0
   11.1165   -2.5270   -5.9876 H   0  0  0  0  0  0  0  0  0  0  0  0
   13.0372   -1.5205   -4.1161 H   0  0  0  0  0  0  0  0  0  0  0  0
   11.4252    1.2609   -2.6855 H   0  0  0  0  0  0  0  0  0  0  0  0
    7.3304    1.2564   -1.7049 H   0  0  0  0  0  0  0  0  0  0  0  0
  1  2  1  0  0  0  0
  1 31  1  0  0  0  0
  1 32  1  0  0  0  0
  1 33  1  0  0  0  0
  2  3  1  0  0  0  0
  2 34  1  0  0  0  0
  3  4  2  0  0  0  0
  3  5  1  0  0  0  0
  5  6  2  0  0  0  0
  5 29  1  0  0  0  0
  6  7  1  0  0  0  0
  6 35  1  0  0  0  0
  7  8  2  0  0  0  0
  7 36  1  0  0  0  0
  8  9  1  0  0  0  0
  8 28  1  0  0  0  0
  9 10  2  0  0  0  0
  9 11  1  0  0  0  0
 11 12  1  0  0  0  0
 11 37  1  0  0  0  0
 12 13  2  0  0  0  0
 12 27  1  0  0  0  0
 13 14  1  0  0  0  0
 13 38  1  0  0  0  0
 14 15  2  0  0  0  0
 14 39  1  0  0  0  0
 15 16  1  0  0  0  0
 15 40  1  0  0  0  0
 16 17  1  0  0  0  0
 16 27  2  0  0  0  0
 17 18  1  0  0  0  0
 17 41  1  0  0  0  0
 17 42  1  0  0  0  0
 18 19  2  0  0  0  0
 18 26  1  0  0  0  0
 19 20  1  0  0  0  0
 20 21  2  0  0  0  0
 20 25  1  0  0  0  0
 21 22  1  0  0  0  0
 21 43  1  0  0  0  0
 22 23  2  0  0  0  0
 22 44  1  0  0  0  0
 23 24  1  0  0  0  0
 23 45  1  0  0  0  0
 24 25  2  0  0  0  0
 24 46  1  0  0  0  0
 25 26  1  0  0  0  0
 26 47  1  0  0  0  0
 27 48  1  0  0  0  0
 28 29  2  0  0  0  0
 28 49  1  0  0  0  0
 29 30  1  0  0  0  0
M  END
$$$$
