
 OpenBabel01122422513D

 49 52  0  0  0  0  0  0  0  0999 V2000
    1.1312   -3.8227    2.3575 C   0  0  0  0  0  0  0  0  0  0  0  0
    2.5582   -3.7715    2.3287 O   0  0  0  0  0  0  0  0  0  0  0  0
    3.0630   -2.5379    2.0771 C   0  0  0  0  0  0  0  0  0  0  0  0
    2.4094   -1.5269    1.8708 O   0  0  0  0  0  0  0  0  0  0  0  0
    4.5511   -2.5655    2.0900 C   0  0  0  0  0  0  0  0  0  0  0  0
    5.2776   -3.7468    2.2819 C   0  0  0  0  0  0  0  0  0  0  0  0
    6.6762   -3.7153    2.2836 C   0  0  0  0  0  0  0  0  0  0  0  0
    7.3738   -2.5132    2.0993 C   0  0  0  0  0  0  0  0  0  0  0  0
    8.7851   -2.4714    2.0879 C   0  0  0  0  0  0  0  0  0  0  0  0
    9.4938   -1.2753    1.9021 C   0  0  0  0  0  0  0  0  0  0  0  0
   10.9436   -1.2267    1.8350 N   0  0  0  0  0  0  0  0  0  0  0  0
   11.5011   -0.1062    1.0759 C   0  0  0  0  0  0  0  0  0  0  0  0
   11.7558   -2.1894    2.4646 C   0  0  0  0  0  0  0  0  0  0  0  0
   11.3350   -3.1656    3.0959 O   0  0  0  0  0  0  0  0  0  0  0  0
   13.2689   -2.0614    2.4448 C   0  0  0  0  0  0  0  0  0  0  0  0
   14.0137   -0.9575    2.3364 C   0  0  0  0  0  0  0  0  0  0  0  0
   15.4064   -1.3590    2.6106 C   0  0  0  0  0  0  0  0  0  0  0  0
   16.3278   -0.5619    2.5398 O   0  0  0  0  0  0  0  0  0  0  0  0
   15.3650   -2.7052    2.9489 N   0  0  0  0  0  0  0  0  0  0  0  0
   16.4305   -3.5359    3.3435 C   0  0  0  0  0  0  0  0  0  0  0  0
   17.6823   -2.9813    3.6573 C   0  0  0  0  0  0  0  0  0  0  0  0
   18.7527   -3.7823    4.0535 C   0  0  0  0  0  0  0  0  0  0  0  0
   18.5854   -5.1606    4.1382 C   0  0  0  0  0  0  0  0  0  0  0  0
   17.3555   -5.7311    3.8318 C   0  0  0  0  0  0  0  0  0  0  0  0
   16.2785   -4.9256    3.4421 C   0  0  0  0  0  0  0  0  0  0  0  0
   14.0546   -3.1784    2.7586 N   0  0  0  0  0  0  0  0  0  0  0  0
    8.7327   -0.1031    1.7392 C   0  0  0  0  0  0  0  0  0  0  0  0
    7.3344   -0.1234    1.7353 C   0  0  0  0  0  0  0  0  0  0  0  0
    6.6409   -1.3212    1.9109 C   0  0  0  0  0  0  0  0  0  0  0  0
    5.2366   -1.3573    1.9092 C   0  0  0  0  0  0  0  0  0  0  0  0
    0.8356   -4.8220    2.6886 H   0  0  0  0  0  0  0  0  0  0  0  0
    0.7272   -3.6539    1.3546 H   0  0  0  0  0  0  0  0  0  0  0  0
    0.7283   -3.0926    3.0666 H   0  0  0  0  0  0  0  0  0  0  0  0
    4.7745   -4.6975    2.4307 H   0  0  0  0  0  0  0  0  0  0  0  0
    7.2215   -4.6453    2.4368 H   0  0  0  0  0  0  0  0  0  0  0  0
    9.3134   -3.4153    2.1848 H   0  0  0  0  0  0  0  0  0  0  0  0
   10.7971    0.3148    0.3540 H   0  0  0  0  0  0  0  0  0  0  0  0
   12.3516   -0.4431    0.4800 H   0  0  0  0  0  0  0  0  0  0  0  0
   11.7970    0.6749    1.7827 H   0  0  0  0  0  0  0  0  0  0  0  0
   13.7840    0.0772    2.1828 H   0  0  0  0  0  0  0  0  0  0  0  0
   17.8527   -1.9086    3.6139 H   0  0  0  0  0  0  0  0  0  0  0  0
   19.7092   -3.3269    4.2927 H   0  0  0  0  0  0  0  0  0  0  0  0
   19.4248   -5.7874    4.4392 H   0  0  0  0  0  0  0  0  0  0  0  0
   17.2294   -6.8087    3.8899 H   0  0  0  0  0  0  0  0  0  0  0  0
   15.3366   -5.4030    3.1916 H   0  0  0  0  0  0  0  0  0  0  0  0
   13.6506   -3.6819    3.5549 H   0  0  0  0  0  0  0  0  0  0  0  0
    9.2035    0.8700    1.6362 H   0  0  0  0  0  0  0  0  0  0  0  0
    6.7963    0.8124    1.5970 H   0  0  0  0  0  0  0  0  0  0  0  0
    4.6690   -0.4402    1.7586 H   0  0  0  0  0  0  0  0  0  0  0  0
  1  2  1  0  0  0  0
  1 31  1  0  0  0  0
  1 32  1  0  0  0  0
  1 33  1  0  0  0  0
  2  3  1  0  0  0  0
  3  4  2  0  0  0  0
  3  5  1  0  0  0  0
  5  6  2  0  0  0  0
  5 30  1  0  0  0  0
  6  7  1  0  0  0  0
  6 34  1  0  0  0  0
  7  8  2  0  0  0  0
  7 35  1  0  0  0  0
  8  9  1  0  0  0  0
  8 29  1  0  0  0  0
  9 10  2  0  0  0  0
  9 36  1  0  0  0  0
 10 11  1  0  0  0  0
 10 27  1  0  0  0  0
 11 12  1  0  0  0  0
 11 13  1  0  0  0  0
 12 37  1  0  0  0  0
 12 38  1  0  0  0  0
 12 39  1  0  0  0  0
 13 14  2  0  0  0  0
 13 15  1  0  0  0  0
 15 16  2  0  0  0  0
 15 26  1  0  0  0  0
 16 17  1  0  0  0  0
 16 40  1  0  0  0  0
 17 18  2  0  0  0  0
 17 19  1  0  0  0  0
 19 20  1  0  0  0  0
 19 26  1  0  0  0  0
 20 21  2  0  0  0  0
 20 25  1  0  0  0  0
 21 22  1  0  0  0  0
 21 41  1  0  0  0  0
 22 23  2  0  0  0  0
 22 42  1  0  0  0  0
 23 24  1  0  0  0  0
 23 43  1  0  0  0  0
 24 25  2  0  0  0  0
 24 44  1  0  0  0  0
 25 45  1  0  0  0  0
 26 46  1  0  0  0  0
 27 28  2  0  0  0  0
 27 47  1  0  0  0  0
 28 29  1  0  0  0  0
 28 48  1  0  0  0  0
 29 30  2  0  0  0  0
 30 49  1  0  0  0  0
M  END
$$$$
