
 OpenBabel01122422513D

 51 54  0  0  1  0  0  0  0  0999 V2000
    4.3255    1.0482    0.7248 C   0  0  0  0  0  0  0  0  0  0  0  0
    4.0256   -0.4499    0.6081 C   0  0  3  0  0  0  0  0  0  0  0  0
    2.7195   -0.7543    1.1251 O   0  0  0  0  0  0  0  0  0  0  0  0
    2.5023   -0.6360    2.4690 C   0  0  0  0  0  0  0  0  0  0  0  0
    1.1722   -0.4146    2.8393 C   0  0  0  0  0  0  0  0  0  0  0  0
    0.8228   -0.2506    4.1855 C   0  0  0  0  0  0  0  0  0  0  0  0
    1.8083   -0.3074    5.1740 C   0  0  0  0  0  0  0  0  0  0  0  0
    1.4137   -0.1033    6.5992 C   0  0  0  0  0  0  0  0  0  0  0  0
    0.2806   -0.3797    6.9754 O   0  0  0  0  0  0  0  0  0  0  0  0
    2.3789    0.4235    7.4280 N   0  0  0  0  0  0  0  0  0  0  0  0
    2.1676    0.5803    8.8530 C   0  0  0  0  0  0  0  0  0  0  0  0
    2.5477   -0.6691    9.6162 C   0  0  0  0  0  0  0  0  0  0  0  0
    1.5833   -1.6432    9.8771 C   0  0  0  0  0  0  0  0  0  0  0  0
    1.9543   -2.8103   10.5424 C   0  0  0  0  0  0  0  0  0  0  0  0
    3.2827   -2.9835   10.9153 C   0  0  0  0  0  0  0  0  0  0  0  0
    3.7549   -4.1951   11.5825 C   0  0  0  0  0  0  0  0  0  0  0  0
    5.0540   -4.3178   11.8851 C   0  0  0  0  0  0  0  0  0  0  0  0
    6.0228   -3.2360   11.5720 C   0  0  0  0  0  0  0  0  0  0  0  0
    7.2088   -3.3634   11.8520 O   0  0  0  0  0  0  0  0  0  0  0  0
    5.5216   -2.1216   10.9645 N   0  0  0  0  0  0  0  0  0  0  0  0
    4.1844   -1.9613   10.6118 C   0  0  0  0  0  0  0  0  0  0  0  0
    3.8517   -0.8172    9.9769 N   0  0  0  0  0  0  0  0  0  0  0  0
    3.1309   -0.5844    4.8077 C   0  0  0  0  0  0  0  0  0  0  0  0
    3.4755   -0.7467    3.4599 C   0  0  0  0  0  0  0  0  0  0  0  0
    4.0805   -0.8361   -0.8651 C   0  0  0  0  0  0  0  0  0  0  0  0
    5.2950   -1.2618   -1.4300 C   0  0  0  0  0  0  0  0  0  0  0  0
    5.3873   -1.5396   -2.7952 C   0  0  0  0  0  0  0  0  0  0  0  0
    4.2683   -1.3965   -3.6124 C   0  0  0  0  0  0  0  0  0  0  0  0
    3.0558   -0.9816   -3.0657 C   0  0  0  0  0  0  0  0  0  0  0  0
    2.9624   -0.6999   -1.7017 C   0  0  0  0  0  0  0  0  0  0  0  0
    4.5186    1.3309    1.7642 H   0  0  0  0  0  0  0  0  0  0  0  0
    3.4705    1.6466    0.3890 H   0  0  0  0  0  0  0  0  0  0  0  0
    5.2023    1.3380    0.1353 H   0  0  0  0  0  0  0  0  0  0  0  0
    4.7829   -1.0489    1.1269 H   0  0  0  0  0  0  0  0  0  0  0  0
    0.4015   -0.3585    2.0732 H   0  0  0  0  0  0  0  0  0  0  0  0
   -0.2162   -0.0668    4.4523 H   0  0  0  0  0  0  0  0  0  0  0  0
    3.2936    0.6620    7.0753 H   0  0  0  0  0  0  0  0  0  0  0  0
    1.1259    0.8539    9.0519 H   0  0  0  0  0  0  0  0  0  0  0  0
    2.7984    1.4132    9.1832 H   0  0  0  0  0  0  0  0  0  0  0  0
    0.5557   -1.5034    9.5489 H   0  0  0  0  0  0  0  0  0  0  0  0
    1.2082   -3.5731   10.7448 H   0  0  0  0  0  0  0  0  0  0  0  0
    3.0464   -4.9833   11.8111 H   0  0  0  0  0  0  0  0  0  0  0  0
    5.4582   -5.2004   12.3649 H   0  0  0  0  0  0  0  0  0  0  0  0
    6.1547   -1.3701   10.7405 H   0  0  0  0  0  0  0  0  0  0  0  0
    3.9070   -0.7079    5.5572 H   0  0  0  0  0  0  0  0  0  0  0  0
    4.5090   -0.9763    3.2241 H   0  0  0  0  0  0  0  0  0  0  0  0
    6.1844   -1.3649   -0.8117 H   0  0  0  0  0  0  0  0  0  0  0  0
    6.3345   -1.8579   -3.2229 H   0  0  0  0  0  0  0  0  0  0  0  0
    4.3416   -1.6033   -4.6767 H   0  0  0  0  0  0  0  0  0  0  0  0
    2.1825   -0.8671   -3.7021 H   0  0  0  0  0  0  0  0  0  0  0  0
    2.0115   -0.3636   -1.2938 H   0  0  0  0  0  0  0  0  0  0  0  0
  1  2  1  0  0  0  0
  1 31  1  0  0  0  0
  1 32  1  0  0  0  0
  1 33  1  0  0  0  0
  2  3  1  0  0  0  0
  2 25  1  0  0  0  0
  2 34  1  0  0  0  0
  3  4  1  0  0  0  0
  4  5  2  0  0  0  0
  4 24  1  0  0  0  0
  5  6  1  0  0  0  0
  5 35  1  0  0  0  0
  6  7  2  0  0  0  0
  6 36  1  0  0  0  0
  7  8  1  0  0  0  0
  7 23  1  0  0  0  0
  8  9  2  0  0  0  0
  8 10  1  0  0  0  0
 10 11  1  0  0  0  0
 10 37  1  0  0  0  0
 11 12  1  0  0  0  0
 11 38  1  0  0  0  0
 11 39  1  0  0  0  0
 12 13  2  0  0  0  0
 12 22  1  0  0  0  0
 13 14  1  0  0  0  0
 13 40  1  0  0  0  0
 14 15  2  0  0  0  0
 14 41  1  0  0  0  0
 15 16  1  0  0  0  0
 15 21  1  0  0  0  0
 16 17  2  0  0  0  0
 16 42  1  0  0  0  0
 17 18  1  0  0  0  0
 17 43  1  0  0  0  0
 18 19  2  0  0  0  0
 18 20  1  0  0  0  0
 20 21  1  0  0  0  0
 20 44  1  0  0  0  0
 21 22  2  0  0  0  0
 23 24  2  0  0  0  0
 23 45  1  0  0  0  0
 24 46  1  0  0  0  0
 25 26  2  0  0  0  0
 25 30  1  0  0  0  0
 26 27  1  0  0  0  0
 26 47  1  0  0  0  0
 27 28  2  0  0  0  0
 27 48  1  0  0  0  0
 28 29  1  0  0  0  0
 28 49  1  0  0  0  0
 29 30  2  0  0  0  0
 29 50  1  0  0  0  0
 30 51  1  0  0  0  0
M  END
$$$$
