
 OpenBabel01122422513D

 54 57  0  0  0  0  0  0  0  0999 V2000
    1.0504   -0.2810    0.2479 O   0  0  0  0  0  0  0  0  0  0  0  0
    2.2526   -0.1103    0.0365 C   0  0  0  0  0  0  0  0  0  0  0  0
    2.9502   -0.9205   -1.0487 C   0  0  0  0  0  0  0  0  0  0  0  0
    3.0354   -0.2022   -2.2714 O   0  0  0  0  0  0  0  0  0  0  0  0
    3.6055   -0.8899   -3.3123 C   0  0  0  0  0  0  0  0  0  0  0  0
    3.7279   -2.2814   -3.3870 C   0  0  0  0  0  0  0  0  0  0  0  0
    4.3804   -2.8748   -4.4668 C   0  0  0  0  0  0  0  0  0  0  0  0
    4.8937   -2.0839   -5.4890 C   0  0  0  0  0  0  0  0  0  0  0  0
    4.6982   -0.7006   -5.4682 C   0  0  0  0  0  0  0  0  0  0  0  0
    5.1602    0.1370   -6.4602 O   0  0  0  0  0  0  0  0  0  0  0  0
    5.0484   -0.2840   -7.7787 C   0  0  0  0  0  0  0  0  0  0  0  0
    5.9272    0.2824   -8.6906 C   0  0  0  0  0  0  0  0  0  0  0  0
    5.8527   -0.1274  -10.0177 C   0  0  0  0  0  0  0  0  0  0  0  0
    4.9076   -1.0759  -10.3884 C   0  0  0  0  0  0  0  0  0  0  0  0
    4.0591   -1.5715   -9.4139 C   0  0  0  0  0  0  0  0  0  0  0  0
    4.0949   -1.1872   -8.1246 N   0  0  0  0  0  0  0  0  0  0  0  0
    4.0754   -0.1044   -4.3677 C   0  0  0  0  0  0  0  0  0  0  0  0
    3.0028    0.7568    0.8096 N   0  0  0  0  0  0  0  0  0  0  0  0
    2.3972    1.3396    1.9948 C   0  0  0  0  0  0  0  0  0  0  0  0
    2.4431    2.8647    1.9553 C   0  0  0  0  0  0  0  0  0  0  0  0
    3.7998    3.3681    1.6907 N   0  0  0  0  0  0  0  0  0  0  0  0
    4.4767    4.3864    2.3726 C   0  0  0  0  0  0  0  0  0  0  0  0
    5.6098    4.7394    2.0481 O   0  0  0  0  0  0  0  0  0  0  0  0
    3.8582    5.0708    3.5389 C   0  0  0  0  0  0  0  0  0  0  0  0
    2.5196    5.4770    3.5430 C   0  0  0  0  0  0  0  0  0  0  0  0
    1.9611    6.0087    4.7014 C   0  0  0  0  0  0  0  0  0  0  0  0
    0.6501    6.2785    4.7298 F   0  0  0  0  0  0  0  0  0  0  0  0
    2.7330    6.2459    5.8318 C   0  0  0  0  0  0  0  0  0  0  0  0
    4.0931    5.9479    5.7995 C   0  0  0  0  0  0  0  0  0  0  0  0
    4.6461    5.3529    4.6625 C   0  0  0  0  0  0  0  0  0  0  0  0
    5.9492    5.0396    4.6973 F   0  0  0  0  0  0  0  0  0  0  0  0
    4.4441    2.7643    0.5077 C   0  0  0  0  0  0  0  0  0  0  0  0
    4.3703    1.2207    0.5277 C   0  0  0  0  0  0  0  0  0  0  0  0
    2.3384   -1.8267   -1.1630 H   0  0  0  0  0  0  0  0  0  0  0  0
    3.9450   -1.2206   -0.7000 H   0  0  0  0  0  0  0  0  0  0  0  0
    3.3193   -2.9415   -2.6297 H   0  0  0  0  0  0  0  0  0  0  0  0
    4.4788   -3.9561   -4.5175 H   0  0  0  0  0  0  0  0  0  0  0  0
    5.4128   -2.5598   -6.3157 H   0  0  0  0  0  0  0  0  0  0  0  0
    6.6586    1.0152   -8.3696 H   0  0  0  0  0  0  0  0  0  0  0  0
    6.5336    0.2895  -10.7574 H   0  0  0  0  0  0  0  0  0  0  0  0
    4.8332   -1.4247  -11.4137 H   0  0  0  0  0  0  0  0  0  0  0  0
    3.3045   -2.3158   -9.6508 H   0  0  0  0  0  0  0  0  0  0  0  0
    3.9540    0.9754   -4.3355 H   0  0  0  0  0  0  0  0  0  0  0  0
    2.9709    0.9750    2.8581 H   0  0  0  0  0  0  0  0  0  0  0  0
    1.3657    1.0077    2.1306 H   0  0  0  0  0  0  0  0  0  0  0  0
    2.0480    3.2138    2.9051 H   0  0  0  0  0  0  0  0  0  0  0  0
    1.8051    3.2423    1.1469 H   0  0  0  0  0  0  0  0  0  0  0  0
    1.8877    5.3650    2.6687 H   0  0  0  0  0  0  0  0  0  0  0  0
    2.2738    6.6681    6.7205 H   0  0  0  0  0  0  0  0  0  0  0  0
    4.7268    6.1583    6.6563 H   0  0  0  0  0  0  0  0  0  0  0  0
    5.4875    3.0752    0.4162 H   0  0  0  0  0  0  0  0  0  0  0  0
    3.9067    3.1450   -0.3689 H   0  0  0  0  0  0  0  0  0  0  0  0
    5.0071    0.8323    1.3308 H   0  0  0  0  0  0  0  0  0  0  0  0
    4.7423    0.8277   -0.4208 H   0  0  0  0  0  0  0  0  0  0  0  0
  1  2  2  0  0  0  0
  2  3  1  0  0  0  0
  2 18  1  0  0  0  0
  3  4  1  0  0  0  0
  3 34  1  0  0  0  0
  3 35  1  0  0  0  0
  4  5  1  0  0  0  0
  5  6  2  0  0  0  0
  5 17  1  0  0  0  0
  6  7  1  0  0  0  0
  6 36  1  0  0  0  0
  7  8  2  0  0  0  0
  7 37  1  0  0  0  0
  8  9  1  0  0  0  0
  8 38  1  0  0  0  0
  9 10  1  0  0  0  0
  9 17  2  0  0  0  0
 10 11  1  0  0  0  0
 11 12  2  0  0  0  0
 11 16  1  0  0  0  0
 12 13  1  0  0  0  0
 12 39  1  0  0  0  0
 13 14  2  0  0  0  0
 13 40  1  0  0  0  0
 14 15  1  0  0  0  0
 14 41  1  0  0  0  0
 15 16  2  0  0  0  0
 15 42  1  0  0  0  0
 17 43  1  0  0  0  0
 18 19  1  0  0  0  0
 18 33  1  0  0  0  0
 19 20  1  0  0  0  0
 19 44  1  0  0  0  0
 19 45  1  0  0  0  0
 20 21  1  0  0  0  0
 20 46  1  0  0  0  0
 20 47  1  0  0  0  0
 21 22  1  0  0  0  0
 21 32  1  0  0  0  0
 22 23  2  0  0  0  0
 22 24  1  0  0  0  0
 24 25  2  0  0  0  0
 24 30  1  0  0  0  0
 25 26  1  0  0  0  0
 25 48  1  0  0  0  0
 26 27  1  0  0  0  0
 26 28  2  0  0  0  0
 28 29  1  0  0  0  0
 28 49  1  0  0  0  0
 29 30  2  0  0  0  0
 29 50  1  0  0  0  0
 30 31  1  0  0  0  0
 32 33  1  0  0  0  0
 32 51  1  0  0  0  0
 32 52  1  0  0  0  0
 33 53  1  0  0  0  0
 33 54  1  0  0  0  0
M  END
$$$$
