
 OpenBabel01122422463D

 41 44  0  0  0  0  0  0  0  0999 V2000
    1.2027   -0.2361   -0.8085 O   0  0  0  0  0  0  0  0  0  0  0  0
    2.3491   -0.0686   -0.3866 C   0  0  0  0  0  0  0  0  0  0  0  0
    2.8910   -0.6451    0.7404 N   0  0  0  0  0  0  0  0  0  0  0  0
    2.2552   -1.6605    1.4509 C   0  0  0  0  0  0  0  0  0  0  0  0
    1.2209   -2.3804    1.0103 N   0  0  0  0  0  0  0  0  0  0  0  0
    0.9275   -3.2471    1.9961 N   0  0  0  0  0  0  0  0  0  0  0  0
   -0.1461   -4.1716    1.8673 C   0  0  0  0  0  0  0  0  0  0  0  0
   -0.9422   -4.4407    2.9985 C   0  0  0  0  0  0  0  0  0  0  0  0
   -2.0685   -5.2647    2.8984 C   0  0  0  0  0  0  0  0  0  0  0  0
   -2.4107   -5.8337    1.6767 C   0  0  0  0  0  0  0  0  0  0  0  0
   -1.6048   -5.6016    0.5623 C   0  0  0  0  0  0  0  0  0  0  0  0
   -0.4456   -4.7938    0.6373 C   0  0  0  0  0  0  0  0  0  0  0  0
    0.4403   -4.7712   -0.5936 C   0  0  0  0  0  0  0  0  0  0  0  0
    1.7427   -4.4333   -0.4009 F   0  0  0  0  0  0  0  0  0  0  0  0
    0.5200   -6.0303   -1.1391 F   0  0  0  0  0  0  0  0  0  0  0  0
   -0.0449   -3.9922   -1.5973 F   0  0  0  0  0  0  0  0  0  0  0  0
    1.7278   -3.0420    3.0957 C   0  0  0  0  0  0  0  0  0  0  0  0
    2.6457   -2.0914    2.7389 C   0  0  0  0  0  0  0  0  0  0  0  0
    3.2169    0.8448   -1.1885 C   0  0  0  0  0  0  0  0  0  0  0  0
    2.9200    0.9290   -2.5645 C   0  0  0  0  0  0  0  0  0  0  0  0
    3.7277    1.6553   -3.4371 C   0  0  0  0  0  0  0  0  0  0  0  0
    4.8021    2.3588   -2.9123 C   0  0  0  0  0  0  0  0  0  0  0  0
    5.7423    3.0512   -3.7879 C   0  0  0  0  0  0  0  0  0  0  0  0
    6.5824    3.9431   -3.3701 N   0  0  0  0  0  0  0  0  0  0  0  0
    6.5978    4.1947   -2.0261 N   0  0  0  0  0  0  0  0  0  0  0  0
    5.9798    3.4285   -1.0588 C   0  0  0  0  0  0  0  0  0  0  0  0
    6.1630    3.5917    0.1429 O   0  0  0  0  0  0  0  0  0  0  0  0
    5.0138    2.4231   -1.5408 C   0  0  0  0  0  0  0  0  0  0  0  0
    4.2549    1.6274   -0.6637 C   0  0  0  0  0  0  0  0  0  0  0  0
    3.7853   -0.3530    1.0949 H   0  0  0  0  0  0  0  0  0  0  0  0
   -0.7379   -3.9693    3.9576 H   0  0  0  0  0  0  0  0  0  0  0  0
   -2.6909   -5.4403    3.7726 H   0  0  0  0  0  0  0  0  0  0  0  0
   -3.2914   -6.4654    1.5855 H   0  0  0  0  0  0  0  0  0  0  0  0
   -1.8668   -6.0816   -0.3812 H   0  0  0  0  0  0  0  0  0  0  0  0
    1.6188   -3.6368    3.9959 H   0  0  0  0  0  0  0  0  0  0  0  0
    3.4614   -1.7249    3.3462 H   0  0  0  0  0  0  0  0  0  0  0  0
    2.0491    0.4072   -2.9652 H   0  0  0  0  0  0  0  0  0  0  0  0
    3.4964    1.6817   -4.4970 H   0  0  0  0  0  0  0  0  0  0  0  0
    5.7417    2.7815   -4.8583 H   0  0  0  0  0  0  0  0  0  0  0  0
    7.2151    4.9413   -1.7206 H   0  0  0  0  0  0  0  0  0  0  0  0
    4.4546    1.6712    0.4026 H   0  0  0  0  0  0  0  0  0  0  0  0
  1  2  2  0  0  0  0
  2  3  1  0  0  0  0
  2 19  1  0  0  0  0
  3  4  1  0  0  0  0
  3 30  1  0  0  0  0
  4  5  2  0  0  0  0
  4 18  1  0  0  0  0
  5  6  1  0  0  0  0
  6  7  1  0  0  0  0
  6 17  1  0  0  0  0
  7  8  2  0  0  0  0
  7 12  1  0  0  0  0
  8  9  1  0  0  0  0
  8 31  1  0  0  0  0
  9 10  2  0  0  0  0
  9 32  1  0  0  0  0
 10 11  1  0  0  0  0
 10 33  1  0  0  0  0
 11 12  2  0  0  0  0
 11 34  1  0  0  0  0
 12 13  1  0  0  0  0
 13 14  1  0  0  0  0
 13 15  1  0  0  0  0
 13 16  1  0  0  0  0
 17 18  2  0  0  0  0
 17 35  1  0  0  0  0
 18 36  1  0  0  0  0
 19 20  2  0  0  0  0
 19 29  1  0  0  0  0
 20 21  1  0  0  0  0
 20 37  1  0  0  0  0
 21 22  2  0  0  0  0
 21 38  1  0  0  0  0
 22 23  1  0  0  0  0
 22 28  1  0  0  0  0
 23 24  2  0  0  0  0
 23 39  1  0  0  0  0
 24 25  1  0  0  0  0
 25 26  1  0  0  0  0
 25 40  1  0  0  0  0
 26 27  2  0  0  0  0
 26 28  1  0  0  0  0
 28 29  2  0  0  0  0
 29 41  1  0  0  0  0
M  END
$$$$
