
 OpenBabel01122422513D

 41 44  0  0  0  0  0  0  0  0999 V2000
    0.9990    0.3030   -0.0016 O   0  0  0  0  0  0  0  0  0  0  0  0
    2.2016    0.0693    0.0247 C   0  0  0  0  0  0  0  0  0  0  0  0
    2.8583   -0.9909   -0.5895 N   0  0  0  0  0  0  0  0  0  0  0  0
    2.2003   -1.9381   -1.4127 C   0  0  0  0  0  0  0  0  0  0  0  0
    0.9819   -1.6436   -2.0379 C   0  0  0  0  0  0  0  0  0  0  0  0
    0.2880   -2.6150   -2.7505 C   0  0  0  0  0  0  0  0  0  0  0  0
    0.8146   -3.8926   -2.8648 C   0  0  0  0  0  0  0  0  0  0  0  0
    0.0725   -4.8146   -3.4941 F   0  0  0  0  0  0  0  0  0  0  0  0
    2.0539   -4.2076   -2.2953 C   0  0  0  0  0  0  0  0  0  0  0  0
    2.5630   -5.5704   -2.4007 C   0  0  0  0  0  0  0  0  0  0  0  0
    3.3806   -6.1376   -1.4957 N   0  0  0  0  0  0  0  0  0  0  0  0
    3.4712   -7.3960   -1.9584 N   0  0  0  0  0  0  0  0  0  0  0  0
    2.7831   -7.5504   -3.1154 C   0  0  0  0  0  0  0  0  0  0  0  0
    2.2102   -6.4159   -3.4287 N   0  0  0  0  0  0  0  0  0  0  0  0
    2.7549   -3.2141   -1.5834 C   0  0  0  0  0  0  0  0  0  0  0  0
    3.0438    0.9628    0.9016 C   0  0  0  0  0  0  0  0  0  0  0  0
    4.0571    0.4214    1.5280 N   0  0  0  0  0  0  0  0  0  0  0  0
    4.7386    1.2172    2.4297 N   0  0  0  0  0  0  0  0  0  0  0  0
    5.8986    0.6253    3.0274 C   0  0  0  0  0  0  0  0  0  0  0  0
    6.0353   -0.7738    3.1069 C   0  0  0  0  0  0  0  0  0  0  0  0
    7.1543   -1.3635    3.7089 C   0  0  0  0  0  0  0  0  0  0  0  0
    8.1690   -0.5684    4.2365 C   0  0  0  0  0  0  0  0  0  0  0  0
    8.0680    0.8155    4.1572 C   0  0  0  0  0  0  0  0  0  0  0  0
    6.9519    1.3967    3.5578 C   0  0  0  0  0  0  0  0  0  0  0  0
    6.9362    2.7371    3.4748 F   0  0  0  0  0  0  0  0  0  0  0  0
    4.2642    2.4603    2.8120 C   0  0  0  0  0  0  0  0  0  0  0  0
    3.2606    3.1148    2.2323 C   0  0  0  0  0  0  0  0  0  0  0  0
    2.6580    2.4187    1.0965 C   0  0  0  0  0  0  0  0  0  0  0  0
    1.8945    2.9961    0.3395 O   0  0  0  0  0  0  0  0  0  0  0  0
    3.7949   -1.1992   -0.2544 H   0  0  0  0  0  0  0  0  0  0  0  0
    0.5364   -0.6533   -1.9851 H   0  0  0  0  0  0  0  0  0  0  0  0
   -0.6765   -2.3882   -3.1935 H   0  0  0  0  0  0  0  0  0  0  0  0
    4.0015   -8.0833   -1.4359 H   0  0  0  0  0  0  0  0  0  0  0  0
    2.7239   -8.4787   -3.6647 H   0  0  0  0  0  0  0  0  0  0  0  0
    3.7115   -3.4654   -1.1287 H   0  0  0  0  0  0  0  0  0  0  0  0
    5.2515   -1.4222    2.7219 H   0  0  0  0  0  0  0  0  0  0  0  0
    7.2275   -2.4470    3.7694 H   0  0  0  0  0  0  0  0  0  0  0  0
    9.0373   -1.0246    4.7041 H   0  0  0  0  0  0  0  0  0  0  0  0
    8.8511    1.4556    4.5513 H   0  0  0  0  0  0  0  0  0  0  0  0
    4.7596    2.9135    3.6648 H   0  0  0  0  0  0  0  0  0  0  0  0
    2.9105    4.0943    2.5179 H   0  0  0  0  0  0  0  0  0  0  0  0
  1  2  2  0  0  0  0
  2  3  1  0  0  0  0
  2 16  1  0  0  0  0
  3  4  1  0  0  0  0
  3 30  1  0  0  0  0
  4  5  2  0  0  0  0
  4 15  1  0  0  0  0
  5  6  1  0  0  0  0
  5 31  1  0  0  0  0
  6  7  2  0  0  0  0
  6 32  1  0  0  0  0
  7  8  1  0  0  0  0
  7  9  1  0  0  0  0
  9 10  1  0  0  0  0
  9 15  2  0  0  0  0
 10 11  2  0  0  0  0
 10 14  1  0  0  0  0
 11 12  1  0  0  0  0
 12 13  1  0  0  0  0
 12 33  1  0  0  0  0
 13 14  2  0  0  0  0
 13 34  1  0  0  0  0
 15 35  1  0  0  0  0
 16 17  2  0  0  0  0
 16 28  1  0  0  0  0
 17 18  1  0  0  0  0
 18 19  1  0  0  0  0
 18 26  1  0  0  0  0
 19 20  2  0  0  0  0
 19 24  1  0  0  0  0
 20 21  1  0  0  0  0
 20 36  1  0  0  0  0
 21 22  2  0  0  0  0
 21 37  1  0  0  0  0
 22 23  1  0  0  0  0
 22 38  1  0  0  0  0
 23 24  2  0  0  0  0
 23 39  1  0  0  0  0
 24 25  1  0  0  0  0
 26 27  2  0  0  0  0
 26 40  1  0  0  0  0
 27 28  1  0  0  0  0
 27 41  1  0  0  0  0
 28 29  2  0  0  0  0
M  END
$$$$
