
 OpenBabel01122422513D

 43 46  0  0  0  0  0  0  0  0999 V2000
    4.9457   -1.2206   -1.4885 O   0  0  0  0  0  0  0  0  0  0  0  0
    4.1043   -0.6076   -0.8556 C   0  0  0  0  0  0  0  0  0  0  0  0
    4.1325    0.7944   -0.6791 N   0  0  0  0  0  0  0  0  0  0  0  0
    3.0586    1.1942    0.0603 C   0  0  0  0  0  0  0  0  0  0  0  0
    2.3325    0.1155    0.3736 C   0  0  0  0  0  0  0  0  0  0  0  0
    2.9259   -1.0162   -0.1616 N   0  0  0  0  0  0  0  0  0  0  0  0
    2.4835   -2.3566   -0.1037 C   0  0  0  0  0  0  0  0  0  0  0  0
    1.2805   -2.6674    0.5201 C   0  0  0  0  0  0  0  0  0  0  0  0
    0.8248   -3.9862    0.5211 C   0  0  0  0  0  0  0  0  0  0  0  0
    1.5724   -5.0115   -0.0717 C   0  0  0  0  0  0  0  0  0  0  0  0
    1.1201   -6.4167   -0.0489 C   0  0  0  0  0  0  0  0  0  0  0  0
    0.3583   -6.8879    1.0357 C   0  0  0  0  0  0  0  0  0  0  0  0
   -0.0693   -8.2154    1.1267 C   0  0  0  0  0  0  0  0  0  0  0  0
   -0.7531   -8.7297    2.1961 O   0  0  0  0  0  0  0  0  0  0  0  0
   -0.6230   -7.9765    3.4045 C   0  0  0  0  0  0  0  0  0  0  0  0
   -0.9365   -8.8521    4.5838 C   0  0  0  0  0  0  0  0  0  0  0  0
    0.0657   -9.6690    5.1258 C   0  0  0  0  0  0  0  0  0  0  0  0
   -0.1971  -10.4571    6.2429 C   0  0  0  0  0  0  0  0  0  0  0  0
   -1.4663  -10.4434    6.8189 C   0  0  0  0  0  0  0  0  0  0  0  0
   -2.4740   -9.6470    6.2752 C   0  0  0  0  0  0  0  0  0  0  0  0
   -2.2129   -8.8556    5.1576 C   0  0  0  0  0  0  0  0  0  0  0  0
    0.2120   -9.0974    0.0883 C   0  0  0  0  0  0  0  0  0  0  0  0
    0.9648   -8.6638   -1.0019 C   0  0  0  0  0  0  0  0  0  0  0  0
    1.4164   -7.3441   -1.0584 C   0  0  0  0  0  0  0  0  0  0  0  0
    2.1396   -6.9798   -2.1276 F   0  0  0  0  0  0  0  0  0  0  0  0
    2.7726   -4.6055   -0.6441 C   0  0  0  0  0  0  0  0  0  0  0  0
    3.2260   -3.3266   -0.6716 N   0  0  0  0  0  0  0  0  0  0  0  0
    4.8573    1.3717   -1.0763 H   0  0  0  0  0  0  0  0  0  0  0  0
    2.8850    2.2309    0.3093 H   0  0  0  0  0  0  0  0  0  0  0  0
    1.4222    0.0961    0.9518 H   0  0  0  0  0  0  0  0  0  0  0  0
    0.6640   -1.9165    0.9961 H   0  0  0  0  0  0  0  0  0  0  0  0
   -0.1368   -4.1861    0.9874 H   0  0  0  0  0  0  0  0  0  0  0  0
    0.1152   -6.1956    1.8349 H   0  0  0  0  0  0  0  0  0  0  0  0
   -1.3039   -7.1161    3.3822 H   0  0  0  0  0  0  0  0  0  0  0  0
    0.4022   -7.6042    3.5391 H   0  0  0  0  0  0  0  0  0  0  0  0
    1.0589   -9.6838    4.6816 H   0  0  0  0  0  0  0  0  0  0  0  0
    0.5876  -11.0794    6.6637 H   0  0  0  0  0  0  0  0  0  0  0  0
   -1.6708  -11.0567    7.6919 H   0  0  0  0  0  0  0  0  0  0  0  0
   -3.4634   -9.6414    6.7239 H   0  0  0  0  0  0  0  0  0  0  0  0
   -3.0061   -8.2382    4.7421 H   0  0  0  0  0  0  0  0  0  0  0  0
   -0.1342  -10.1266    0.1376 H   0  0  0  0  0  0  0  0  0  0  0  0
    1.2125   -9.3466   -1.8091 H   0  0  0  0  0  0  0  0  0  0  0  0
    3.4525   -5.3141   -1.1114 H   0  0  0  0  0  0  0  0  0  0  0  0
  1  2  2  0  0  0  0
  2  3  1  0  0  0  0
  2  6  1  0  0  0  0
  3  4  1  0  0  0  0
  3 28  1  0  0  0  0
  4  5  2  0  0  0  0
  4 29  1  0  0  0  0
  5  6  1  0  0  0  0
  5 30  1  0  0  0  0
  6  7  1  0  0  0  0
  7  8  2  0  0  0  0
  7 27  1  0  0  0  0
  8  9  1  0  0  0  0
  8 31  1  0  0  0  0
  9 10  2  0  0  0  0
  9 32  1  0  0  0  0
 10 11  1  0  0  0  0
 10 26  1  0  0  0  0
 11 12  2  0  0  0  0
 11 24  1  0  0  0  0
 12 13  1  0  0  0  0
 12 33  1  0  0  0  0
 13 14  1  0  0  0  0
 13 22  2  0  0  0  0
 14 15  1  0  0  0  0
 15 16  1  0  0  0  0
 15 34  1  0  0  0  0
 15 35  1  0  0  0  0
 16 17  2  0  0  0  0
 16 21  1  0  0  0  0
 17 18  1  0  0  0  0
 17 36  1  0  0  0  0
 18 19  2  0  0  0  0
 18 37  1  0  0  0  0
 19 20  1  0  0  0  0
 19 38  1  0  0  0  0
 20 21  2  0  0  0  0
 20 39  1  0  0  0  0
 21 40  1  0  0  0  0
 22 23  1  0  0  0  0
 22 41  1  0  0  0  0
 23 24  2  0  0  0  0
 23 42  1  0  0  0  0
 24 25  1  0  0  0  0
 26 27  2  0  0  0  0
 26 43  1  0  0  0  0
M  END
$$$$
