
 OpenBabel01122422513D

 41 43  0  0  0  0  0  0  0  0999 V2000
    8.4656   -4.0215    2.6711 N   0  0  0  0  0  0  0  0  0  0  0  0
    8.0954   -3.2007    1.9397 C   0  0  0  0  0  0  0  0  0  0  0  0
    7.6587   -2.1678    1.0525 C   0  0  0  0  0  0  0  0  0  0  0  0
    6.5322   -2.3582    0.2577 C   0  0  0  0  0  0  0  0  0  0  0  0
    5.8533   -3.5133    0.3060 F   0  0  0  0  0  0  0  0  0  0  0  0
    6.1062   -1.3508   -0.6045 C   0  0  0  0  0  0  0  0  0  0  0  0
    5.0326   -1.5478   -1.3812 F   0  0  0  0  0  0  0  0  0  0  0  0
    6.7895   -0.1409   -0.6908 C   0  0  0  0  0  0  0  0  0  0  0  0
    7.9265    0.0538    0.0978 C   0  0  0  0  0  0  0  0  0  0  0  0
    8.7413    1.2899   -0.0217 C   0  0  0  0  0  0  0  0  0  0  0  0
    9.9603    1.1843    0.0356 O   0  0  0  0  0  0  0  0  0  0  0  0
    8.0231    2.4708   -0.1011 N   0  0  0  0  0  0  0  0  0  0  0  0
    8.6607    3.7299   -0.0985 C   0  0  0  0  0  0  0  0  0  0  0  0
    8.1889    4.6983    0.7904 C   0  0  0  0  0  0  0  0  0  0  0  0
    8.8377    5.9307    0.9174 C   0  0  0  0  0  0  0  0  0  0  0  0
    8.5333    6.8535    1.9482 N   0  0  0  0  0  0  0  0  0  0  0  0
    7.8907    6.5259    3.1324 C   0  0  0  0  0  0  0  0  0  0  0  0
    7.4797    5.4143    3.4528 O   0  0  0  0  0  0  0  0  0  0  0  0
    7.7756    7.6677    4.0981 C   0  0  0  0  0  0  0  0  0  0  0  0
    7.7364    7.3878    5.4125 C   0  0  0  0  0  0  0  0  0  0  0  0
    7.5951    8.4560    6.3764 C   0  0  0  0  0  0  0  0  0  0  0  0
    7.4710    9.7253    5.9694 C   0  0  0  0  0  0  0  0  0  0  0  0
    7.4880   10.0341    4.5157 C   0  0  0  0  0  0  0  0  0  0  0  0
    7.3338   11.1766    4.1058 O   0  0  0  0  0  0  0  0  0  0  0  0
    7.6718    8.9685    3.6685 N   0  0  0  0  0  0  0  0  0  0  0  0
    9.8653    6.2477    0.0236 C   0  0  0  0  0  0  0  0  0  0  0  0
   10.3134    5.2958   -0.8990 C   0  0  0  0  0  0  0  0  0  0  0  0
    9.7371    4.0236   -0.9340 C   0  0  0  0  0  0  0  0  0  0  0  0
    8.3614   -0.9586    0.9699 C   0  0  0  0  0  0  0  0  0  0  0  0
    6.4504    0.6091   -1.3993 H   0  0  0  0  0  0  0  0  0  0  0  0
    7.0854    2.4485    0.2821 H   0  0  0  0  0  0  0  0  0  0  0  0
    7.3544    4.4450    1.4346 H   0  0  0  0  0  0  0  0  0  0  0  0
    9.0311    7.7346    1.9257 H   0  0  0  0  0  0  0  0  0  0  0  0
    7.8040    6.3691    5.7857 H   0  0  0  0  0  0  0  0  0  0  0  0
    7.5778    8.1970    7.4312 H   0  0  0  0  0  0  0  0  0  0  0  0
    7.3394   10.5540    6.6512 H   0  0  0  0  0  0  0  0  0  0  0  0
    7.6072    9.1799    2.6818 H   0  0  0  0  0  0  0  0  0  0  0  0
   10.3665    7.2115    0.0607 H   0  0  0  0  0  0  0  0  0  0  0  0
   11.1334    5.5339   -1.5729 H   0  0  0  0  0  0  0  0  0  0  0  0
   10.1170    3.2817   -1.6320 H   0  0  0  0  0  0  0  0  0  0  0  0
    9.2527   -0.7990    1.5781 H   0  0  0  0  0  0  0  0  0  0  0  0
  1  2  3  0  0  0  0
  2  3  1  0  0  0  0
  3  4  2  0  0  0  0
  3 29  1  0  0  0  0
  4  5  1  0  0  0  0
  4  6  1  0  0  0  0
  6  7  1  0  0  0  0
  6  8  2  0  0  0  0
  8  9  1  0  0  0  0
  8 30  1  0  0  0  0
  9 10  1  0  0  0  0
  9 29  2  0  0  0  0
 10 11  2  0  0  0  0
 10 12  1  0  0  0  0
 12 13  1  0  0  0  0
 12 31  1  0  0  0  0
 13 14  2  0  0  0  0
 13 28  1  0  0  0  0
 14 15  1  0  0  0  0
 14 32  1  0  0  0  0
 15 16  1  0  0  0  0
 15 26  2  0  0  0  0
 16 17  1  0  0  0  0
 16 33  1  0  0  0  0
 17 18  2  0  0  0  0
 17 19  1  0  0  0  0
 19 20  2  0  0  0  0
 19 25  1  0  0  0  0
 20 21  1  0  0  0  0
 20 34  1  0  0  0  0
 21 22  2  0  0  0  0
 21 35  1  0  0  0  0
 22 23  1  0  0  0  0
 22 36  1  0  0  0  0
 23 24  2  0  0  0  0
 23 25  1  0  0  0  0
 25 37  1  0  0  0  0
 26 27  1  0  0  0  0
 26 38  1  0  0  0  0
 27 28  2  0  0  0  0
 27 39  1  0  0  0  0
 28 40  1  0  0  0  0
 29 41  1  0  0  0  0
M  END
$$$$
