
 OpenBabel01122422513D

 49 52  0  0  1  0  0  0  0  0999 V2000
    1.2263   -0.2939   -0.0211 O   0  0  0  0  0  0  0  0  0  0  0  0
    2.4320   -0.0772    0.0376 C   0  0  0  0  0  0  0  0  0  0  0  0
    3.0197    1.0438   -0.4887 N   0  0  0  0  0  0  0  0  0  0  0  0
    2.2816    2.0533   -1.2552 C   0  0  3  0  0  0  0  0  0  0  0  0
    1.1500    2.7347   -0.4505 C   0  0  0  0  0  0  0  0  0  0  0  0
    1.6193    3.4701    0.7778 C   0  0  0  0  0  0  0  0  0  0  0  0
    1.7546    2.8023    1.9939 C   0  0  0  0  0  0  0  0  0  0  0  0
    2.2523    3.4952    3.0917 C   0  0  0  0  0  0  0  0  0  0  0  0
    2.5802    4.8373    2.9538 C   0  0  0  0  0  0  0  0  0  0  0  0
    2.3801    5.4356    1.7210 C   0  0  0  0  0  0  0  0  0  0  0  0
    1.9083    4.7863    0.6344 N   0  0  0  0  0  0  0  0  0  0  0  0
    3.2700    3.0200   -1.9204 C   0  0  0  0  0  0  0  0  0  0  0  0
    2.8199    4.0794   -2.7092 C   0  0  0  0  0  0  0  0  0  0  0  0
    3.7512    4.8969   -3.3485 C   0  0  0  0  0  0  0  0  0  0  0  0
    5.1056    4.6336   -3.1975 C   0  0  0  0  0  0  0  0  0  0  0  0
    5.4788    3.5599   -2.4106 C   0  0  0  0  0  0  0  0  0  0  0  0
    4.6035    2.7439   -1.7813 N   0  0  0  0  0  0  0  0  0  0  0  0
    3.3314   -1.0647    0.6915 C   0  0  0  0  0  0  0  0  0  0  0  0
    2.8939   -2.3963    0.7488 C   0  0  0  0  0  0  0  0  0  0  0  0
    3.6874   -3.3753    1.3482 C   0  0  0  0  0  0  0  0  0  0  0  0
    4.9215   -3.0227    1.8885 C   0  0  0  0  0  0  0  0  0  0  0  0
    5.3753   -1.7022    1.8069 C   0  0  0  0  0  0  0  0  0  0  0  0
    6.6051   -1.3202    2.3003 O   0  0  0  0  0  0  0  0  0  0  0  0
    7.6908   -2.1088    1.9389 C   0  0  0  0  0  0  0  0  0  0  0  0
    8.8081   -2.0973    2.7608 C   0  0  0  0  0  0  0  0  0  0  0  0
    9.8961   -2.8743    2.5236 N   0  0  0  0  0  0  0  0  0  0  0  0
    9.8151   -3.6570    1.4224 C   0  0  0  0  0  0  0  0  0  0  0  0
    8.7119   -3.6506    0.5867 C   0  0  0  0  0  0  0  0  0  0  0  0
    7.6352   -2.8692    0.8173 N   0  0  0  0  0  0  0  0  0  0  0  0
    4.5659   -0.7094    1.2495 C   0  0  0  0  0  0  0  0  0  0  0  0
    4.0257    1.0892   -0.6199 H   0  0  0  0  0  0  0  0  0  0  0  0
    1.8070    1.5017   -2.0789 H   0  0  0  0  0  0  0  0  0  0  0  0
    0.3965    1.9982   -0.1483 H   0  0  0  0  0  0  0  0  0  0  0  0
    0.6029    3.4404   -1.0874 H   0  0  0  0  0  0  0  0  0  0  0  0
    1.4852    1.7543    2.0852 H   0  0  0  0  0  0  0  0  0  0  0  0
    2.3862    2.9883    4.0426 H   0  0  0  0  0  0  0  0  0  0  0  0
    2.9798    5.4040    3.7863 H   0  0  0  0  0  0  0  0  0  0  0  0
    2.6047    6.4867    1.5676 H   0  0  0  0  0  0  0  0  0  0  0  0
    1.7612    4.2798   -2.8333 H   0  0  0  0  0  0  0  0  0  0  0  0
    3.4162    5.7298   -3.9583 H   0  0  0  0  0  0  0  0  0  0  0  0
    5.8518    5.2519   -3.6824 H   0  0  0  0  0  0  0  0  0  0  0  0
    6.5275    3.3149   -2.2652 H   0  0  0  0  0  0  0  0  0  0  0  0
    1.9361   -2.6763    0.3193 H   0  0  0  0  0  0  0  0  0  0  0  0
    3.3533   -4.4079    1.3763 H   0  0  0  0  0  0  0  0  0  0  0  0
    5.5400   -3.7948    2.3401 H   0  0  0  0  0  0  0  0  0  0  0  0
    8.8547   -1.4758    3.6473 H   0  0  0  0  0  0  0  0  0  0  0  0
   10.6656   -4.3007    1.2283 H   0  0  0  0  0  0  0  0  0  0  0  0
    8.6547   -4.2863   -0.2892 H   0  0  0  0  0  0  0  0  0  0  0  0
    4.9060    0.3224    1.2556 H   0  0  0  0  0  0  0  0  0  0  0  0
  1  2  2  0  0  0  0
  2  3  1  0  0  0  0
  2 18  1  0  0  0  0
  3  4  1  0  0  0  0
  3 31  1  0  0  0  0
  4  5  1  0  0  0  0
  4 12  1  0  0  0  0
  4 32  1  0  0  0  0
  5  6  1  0  0  0  0
  5 33  1  0  0  0  0
  5 34  1  0  0  0  0
  6  7  2  0  0  0  0
  6 11  1  0  0  0  0
  7  8  1  0  0  0  0
  7 35  1  0  0  0  0
  8  9  2  0  0  0  0
  8 36  1  0  0  0  0
  9 10  1  0  0  0  0
  9 37  1  0  0  0  0
 10 11  2  0  0  0  0
 10 38  1  0  0  0  0
 12 13  2  0  0  0  0
 12 17  1  0  0  0  0
 13 14  1  0  0  0  0
 13 39  1  0  0  0  0
 14 15  2  0  0  0  0
 14 40  1  0  0  0  0
 15 16  1  0  0  0  0
 15 41  1  0  0  0  0
 16 17  2  0  0  0  0
 16 42  1  0  0  0  0
 18 19  2  0  0  0  0
 18 30  1  0  0  0  0
 19 20  1  0  0  0  0
 19 43  1  0  0  0  0
 20 21  2  0  0  0  0
 20 44  1  0  0  0  0
 21 22  1  0  0  0  0
 21 45  1  0  0  0  0
 22 23  1  0  0  0  0
 22 30  2  0  0  0  0
 23 24  1  0  0  0  0
 24 25  2  0  0  0  0
 24 29  1  0  0  0  0
 25 26  1  0  0  0  0
 25 46  1  0  0  0  0
 26 27  2  0  0  0  0
 27 28  1  0  0  0  0
 27 47  1  0  0  0  0
 28 29  2  0  0  0  0
 28 48  1  0  0  0  0
 30 49  1  0  0  0  0
M  END
$$$$
