
 OpenBabel01122422463D

 45 47  0  0  0  0  0  0  0  0999 V2000
    3.2991    7.0054    4.2772 C   0  0  0  0  0  0  0  0  0  0  0  0
    3.8085    5.9453    3.4665 O   0  0  0  0  0  0  0  0  0  0  0  0
    4.6623    5.1103    4.1040 C   0  0  0  0  0  0  0  0  0  0  0  0
    5.0096    5.1917    5.2748 O   0  0  0  0  0  0  0  0  0  0  0  0
    5.1409    4.0490    3.1768 C   0  0  0  0  0  0  0  0  0  0  0  0
    4.7189    3.9844    1.8418 C   0  0  0  0  0  0  0  0  0  0  0  0
    5.1868    2.9674    1.0101 C   0  0  0  0  0  0  0  0  0  0  0  0
    6.0878    2.0214    1.5020 C   0  0  0  0  0  0  0  0  0  0  0  0
    6.5433    2.0804    2.8318 C   0  0  0  0  0  0  0  0  0  0  0  0
    7.5990    1.1022    3.3379 C   0  0  0  0  0  0  0  0  0  0  0  0
    7.5180    0.9168    4.6960 F   0  0  0  0  0  0  0  0  0  0  0  0
    7.4022   -0.1517    2.8182 F   0  0  0  0  0  0  0  0  0  0  0  0
    9.0193    1.6068    2.9509 C   0  0  0  0  0  0  0  0  0  0  0  0
    9.3107    1.8142    1.7678 O   0  0  0  0  0  0  0  0  0  0  0  0
    9.9124    1.7353    4.0173 N   0  0  0  0  0  0  0  0  0  0  0  0
   11.2545    2.1774    3.8991 C   0  0  0  0  0  0  0  0  0  0  0  0
   11.7023    2.9095    2.7950 C   0  0  0  0  0  0  0  0  0  0  0  0
   13.0496    3.2511    2.6498 C   0  0  0  0  0  0  0  0  0  0  0  0
   13.9858    2.8528    3.6021 C   0  0  0  0  0  0  0  0  0  0  0  0
   15.3742    3.1200    3.4002 N   0  0  0  0  0  0  0  0  0  0  0  0
   16.3015    2.0836    3.4516 C   0  0  0  0  0  0  0  0  0  0  0  0
   17.6073    2.2916    3.2398 C   0  0  0  0  0  0  0  0  0  0  0  0
   18.0930    3.6231    2.9986 C   0  0  0  0  0  0  0  0  0  0  0  0
   17.2388    4.6497    2.9235 C   0  0  0  0  0  0  0  0  0  0  0  0
   15.7722    4.4356    3.0937 C   0  0  0  0  0  0  0  0  0  0  0  0
   15.0367    5.4170    3.0015 O   0  0  0  0  0  0  0  0  0  0  0  0
   13.5394    2.1625    4.7377 C   0  0  0  0  0  0  0  0  0  0  0  0
   12.1759    1.8588    4.9026 C   0  0  0  0  0  0  0  0  0  0  0  0
    6.0505    3.0973    3.6644 C   0  0  0  0  0  0  0  0  0  0  0  0
    2.5575    7.5524    3.6882 H   0  0  0  0  0  0  0  0  0  0  0  0
    4.1060    7.6937    4.5468 H   0  0  0  0  0  0  0  0  0  0  0  0
    2.8070    6.6102    5.1715 H   0  0  0  0  0  0  0  0  0  0  0  0
    4.0312    4.7209    1.4338 H   0  0  0  0  0  0  0  0  0  0  0  0
    4.8587    2.9224   -0.0261 H   0  0  0  0  0  0  0  0  0  0  0  0
    6.4535    1.2434    0.8311 H   0  0  0  0  0  0  0  0  0  0  0  0
    9.6308    1.3191    4.9029 H   0  0  0  0  0  0  0  0  0  0  0  0
   11.0232    3.2415    2.0177 H   0  0  0  0  0  0  0  0  0  0  0  0
   13.3578    3.7884    1.7560 H   0  0  0  0  0  0  0  0  0  0  0  0
   15.9155    1.0809    3.6116 H   0  0  0  0  0  0  0  0  0  0  0  0
   18.3164    1.4700    3.2376 H   0  0  0  0  0  0  0  0  0  0  0  0
   19.1612    3.7758    2.8843 H   0  0  0  0  0  0  0  0  0  0  0  0
   17.5594    5.6694    2.7534 H   0  0  0  0  0  0  0  0  0  0  0  0
   14.2450    1.8906    5.5191 H   0  0  0  0  0  0  0  0  0  0  0  0
   11.8660    1.3446    5.8088 H   0  0  0  0  0  0  0  0  0  0  0  0
    6.3826    3.1544    4.7024 H   0  0  0  0  0  0  0  0  0  0  0  0
  1  2  1  0  0  0  0
  1 30  1  0  0  0  0
  1 31  1  0  0  0  0
  1 32  1  0  0  0  0
  2  3  1  0  0  0  0
  3  4  2  0  0  0  0
  3  5  1  0  0  0  0
  5  6  2  0  0  0  0
  5 29  1  0  0  0  0
  6  7  1  0  0  0  0
  6 33  1  0  0  0  0
  7  8  2  0  0  0  0
  7 34  1  0  0  0  0
  8  9  1  0  0  0  0
  8 35  1  0  0  0  0
  9 10  1  0  0  0  0
  9 29  2  0  0  0  0
 10 11  1  0  0  0  0
 10 12  1  0  0  0  0
 10 13  1  0  0  0  0
 13 14  2  0  0  0  0
 13 15  1  0  0  0  0
 15 16  1  0  0  0  0
 15 36  1  0  0  0  0
 16 17  2  0  0  0  0
 16 28  1  0  0  0  0
 17 18  1  0  0  0  0
 17 37  1  0  0  0  0
 18 19  2  0  0  0  0
 18 38  1  0  0  0  0
 19 20  1  0  0  0  0
 19 27  1  0  0  0  0
 20 21  1  0  0  0  0
 20 25  1  0  0  0  0
 21 22  2  0  0  0  0
 21 39  1  0  0  0  0
 22 23  1  0  0  0  0
 22 40  1  0  0  0  0
 23 24  2  0  0  0  0
 23 41  1  0  0  0  0
 24 25  1  0  0  0  0
 24 42  1  0  0  0  0
 25 26  2  0  0  0  0
 27 28  2  0  0  0  0
 27 43  1  0  0  0  0
 28 44  1  0  0  0  0
 29 45  1  0  0  0  0
M  END
$$$$
