
 OpenBabel01122422513D

 40 43  0  0  0  0  0  0  0  0999 V2000
    2.1619   -0.4929   -1.0923 O   0  0  0  0  0  0  0  0  0  0  0  0
    2.1275    0.1136   -0.0263 C   0  0  0  0  0  0  0  0  0  0  0  0
    1.2637   -0.2003    1.0077 N   0  0  0  0  0  0  0  0  0  0  0  0
    0.4139   -1.2874    1.0323 C   0  0  0  0  0  0  0  0  0  0  0  0
    0.5799   -2.4097    0.3115 C   0  0  0  0  0  0  0  0  0  0  0  0
   -0.3571   -3.5203    0.3574 C   0  0  0  0  0  0  0  0  0  0  0  0
   -0.0904   -4.7343   -0.4896 C   0  0  0  0  0  0  0  0  0  0  0  0
    1.0507   -4.6487   -1.2206 F   0  0  0  0  0  0  0  0  0  0  0  0
    0.0249   -5.8524    0.2754 F   0  0  0  0  0  0  0  0  0  0  0  0
   -1.1006   -4.9659   -1.3658 F   0  0  0  0  0  0  0  0  0  0  0  0
   -1.4297   -3.4166    1.1535 C   0  0  0  0  0  0  0  0  0  0  0  0
   -1.6357   -2.2921    1.9173 N   0  0  0  0  0  0  0  0  0  0  0  0
   -0.7888   -1.2057    1.9388 C   0  0  0  0  0  0  0  0  0  0  0  0
   -1.0059   -0.2158    2.6315 O   0  0  0  0  0  0  0  0  0  0  0  0
    2.9371    1.2978    0.2194 C   0  0  0  0  0  0  0  0  0  0  0  0
    4.0679    1.6718   -0.4829 C   0  0  0  0  0  0  0  0  0  0  0  0
    4.9031    1.0728   -1.5079 C   0  0  0  0  0  0  0  0  0  0  0  0
    5.5909    1.8349   -2.4395 C   0  0  0  0  0  0  0  0  0  0  0  0
    6.4434    1.1867   -3.3264 C   0  0  0  0  0  0  0  0  0  0  0  0
    6.5812   -0.2054   -3.2659 C   0  0  0  0  0  0  0  0  0  0  0  0
    7.4539   -0.9001   -4.1220 C   0  0  0  0  0  0  0  0  0  0  0  0
    7.5622   -2.2869   -4.0420 C   0  0  0  0  0  0  0  0  0  0  0  0
    6.7890   -2.9838   -3.1207 C   0  0  0  0  0  0  0  0  0  0  0  0
    5.9263   -2.2879   -2.2676 C   0  0  0  0  0  0  0  0  0  0  0  0
    5.8185   -0.9035   -2.3078 C   0  0  0  0  0  0  0  0  0  0  0  0
    5.0122   -0.2742   -1.4353 N   0  0  0  0  0  0  0  0  0  0  0  0
    4.4693    2.8918    0.0039 O   0  0  0  0  0  0  0  0  0  0  0  0
    3.5841    3.1629    1.0003 C   0  0  0  0  0  0  0  0  0  0  0  0
    2.6542    2.2525    1.1909 N   0  0  0  0  0  0  0  0  0  0  0  0
    1.1268    0.5118    1.7255 H   0  0  0  0  0  0  0  0  0  0  0  0
    1.4468   -2.5353   -0.3339 H   0  0  0  0  0  0  0  0  0  0  0  0
   -2.1798   -4.2015    1.2334 H   0  0  0  0  0  0  0  0  0  0  0  0
   -2.4577   -2.2202    2.5065 H   0  0  0  0  0  0  0  0  0  0  0  0
    5.4781    2.9133   -2.4744 H   0  0  0  0  0  0  0  0  0  0  0  0
    7.0002    1.7698   -4.0551 H   0  0  0  0  0  0  0  0  0  0  0  0
    8.0585   -0.3629   -4.8489 H   0  0  0  0  0  0  0  0  0  0  0  0
    8.2449   -2.8211   -4.6980 H   0  0  0  0  0  0  0  0  0  0  0  0
    6.8549   -4.0672   -3.0579 H   0  0  0  0  0  0  0  0  0  0  0  0
    5.3225   -2.8399   -1.5509 H   0  0  0  0  0  0  0  0  0  0  0  0
    3.7328    4.0917    1.5314 H   0  0  0  0  0  0  0  0  0  0  0  0
  1  2  2  0  0  0  0
  2  3  1  0  0  0  0
  2 15  1  0  0  0  0
  3  4  1  0  0  0  0
  3 30  1  0  0  0  0
  4  5  2  0  0  0  0
  4 13  1  0  0  0  0
  5  6  1  0  0  0  0
  5 31  1  0  0  0  0
  6  7  1  0  0  0  0
  6 11  2  0  0  0  0
  7  8  1  0  0  0  0
  7  9  1  0  0  0  0
  7 10  1  0  0  0  0
 11 12  1  0  0  0  0
 11 32  1  0  0  0  0
 12 13  1  0  0  0  0
 12 33  1  0  0  0  0
 13 14  2  0  0  0  0
 15 16  2  0  0  0  0
 15 29  1  0  0  0  0
 16 17  1  0  0  0  0
 16 27  1  0  0  0  0
 17 18  2  0  0  0  0
 17 26  1  0  0  0  0
 18 19  1  0  0  0  0
 18 34  1  0  0  0  0
 19 20  2  0  0  0  0
 19 35  1  0  0  0  0
 20 21  1  0  0  0  0
 20 25  1  0  0  0  0
 21 22  2  0  0  0  0
 21 36  1  0  0  0  0
 22 23  1  0  0  0  0
 22 37  1  0  0  0  0
 23 24  2  0  0  0  0
 23 38  1  0  0  0  0
 24 25  1  0  0  0  0
 24 39  1  0  0  0  0
 25 26  2  0  0  0  0
 27 28  1  0  0  0  0
 28 29  2  0  0  0  0
 28 40  1  0  0  0  0
M  END
$$$$
