
 OpenBabel01122422513D

 45 47  0  0  1  0  0  0  0  0999 V2000
    1.3731   -0.7671   -0.4771 O   0  0  0  0  0  0  0  0  0  0  0  0
    2.3124   -0.0375   -0.1550 C   0  0  0  0  0  0  0  0  0  0  0  0
    2.7417    0.9951   -0.9520 N   0  0  0  0  0  0  0  0  0  0  0  0
    2.1057    1.3144   -2.2182 C   0  0  3  0  0  0  0  0  0  0  0  0
    1.5610    2.7632   -2.2217 C   0  0  0  0  0  0  0  0  0  0  0  0
    2.5330    3.7726   -1.9462 O   0  0  0  0  0  0  0  0  0  0  0  0
    3.0060    0.9768   -3.3940 C   0  0  0  0  0  0  0  0  0  0  0  0
    2.5837    0.0406   -4.3569 C   0  0  0  0  0  0  0  0  0  0  0  0
    3.3814   -0.2671   -5.4662 C   0  0  0  0  0  0  0  0  0  0  0  0
    4.6194    0.3504   -5.6292 C   0  0  0  0  0  0  0  0  0  0  0  0
    5.0554    1.2591   -4.6745 C   0  0  0  0  0  0  0  0  0  0  0  0
    6.2468    1.8522   -4.8278 F   0  0  0  0  0  0  0  0  0  0  0  0
    4.2637    1.5631   -3.5697 C   0  0  0  0  0  0  0  0  0  0  0  0
    4.7154    2.4507   -2.6701 F   0  0  0  0  0  0  0  0  0  0  0  0
    3.0359   -0.2764    1.1316 C   0  0  0  0  0  0  0  0  0  0  0  0
    2.5740   -1.3441    1.9192 C   0  0  0  0  0  0  0  0  0  0  0  0
    3.2593   -1.7440    3.0660 C   0  0  0  0  0  0  0  0  0  0  0  0
    2.9117   -2.8246    3.8478 O   0  0  0  0  0  0  0  0  0  0  0  0
    2.3302   -3.9358    3.2727 C   0  0  0  0  0  0  0  0  0  0  0  0
    2.5826   -4.3816    1.9716 C   0  0  0  0  0  0  0  0  0  0  0  0
    1.9043   -5.4898    1.4633 C   0  0  0  0  0  0  0  0  0  0  0  0
    1.0246   -6.2002    2.2741 C   0  0  0  0  0  0  0  0  0  0  0  0
    0.8248   -5.8058    3.5971 C   0  0  0  0  0  0  0  0  0  0  0  0
    1.4755   -4.6740    4.0943 C   0  0  0  0  0  0  0  0  0  0  0  0
    4.3530   -0.9976    3.5038 C   0  0  0  0  0  0  0  0  0  0  0  0
    4.7925    0.1049    2.7682 C   0  0  0  0  0  0  0  0  0  0  0  0
    4.1435    0.4595    1.5801 C   0  0  0  0  0  0  0  0  0  0  0  0
    4.6051    1.5354    0.8703 O   0  0  0  0  0  0  0  0  0  0  0  0
    3.4990    1.5815   -0.6119 H   0  0  0  0  0  0  0  0  0  0  0  0
    1.2146    0.6804   -2.3117 H   0  0  0  0  0  0  0  0  0  0  0  0
    0.7995    2.8608   -1.4401 H   0  0  0  0  0  0  0  0  0  0  0  0
    1.0841    2.9940   -3.1806 H   0  0  0  0  0  0  0  0  0  0  0  0
    3.4020    3.4644   -2.2589 H   0  0  0  0  0  0  0  0  0  0  0  0
    1.6235   -0.4641   -4.2474 H   0  0  0  0  0  0  0  0  0  0  0  0
    3.0330   -0.9906   -6.2004 H   0  0  0  0  0  0  0  0  0  0  0  0
    5.2453    0.1271   -6.4880 H   0  0  0  0  0  0  0  0  0  0  0  0
    1.6842   -1.8851    1.6010 H   0  0  0  0  0  0  0  0  0  0  0  0
    3.2863   -3.8630    1.3250 H   0  0  0  0  0  0  0  0  0  0  0  0
    2.0633   -5.7918    0.4308 H   0  0  0  0  0  0  0  0  0  0  0  0
    0.4981   -7.0652    1.8770 H   0  0  0  0  0  0  0  0  0  0  0  0
    0.1558   -6.3742    4.2381 H   0  0  0  0  0  0  0  0  0  0  0  0
    1.3088   -4.3649    5.1230 H   0  0  0  0  0  0  0  0  0  0  0  0
    4.8704   -1.2812    4.4193 H   0  0  0  0  0  0  0  0  0  0  0  0
    5.6532    0.6632    3.1284 H   0  0  0  0  0  0  0  0  0  0  0  0
    5.2749    2.0014    1.4026 H   0  0  0  0  0  0  0  0  0  0  0  0
  1  2  2  0  0  0  0
  2  3  1  0  0  0  0
  2 15  1  0  0  0  0
  3  4  1  0  0  0  0
  3 29  1  0  0  0  0
  4  5  1  0  0  0  0
  4  7  1  0  0  0  0
  4 30  1  0  0  0  0
  5  6  1  0  0  0  0
  5 31  1  0  0  0  0
  5 32  1  0  0  0  0
  6 33  1  0  0  0  0
  7  8  2  0  0  0  0
  7 13  1  0  0  0  0
  8  9  1  0  0  0  0
  8 34  1  0  0  0  0
  9 10  2  0  0  0  0
  9 35  1  0  0  0  0
 10 11  1  0  0  0  0
 10 36  1  0  0  0  0
 11 12  1  0  0  0  0
 11 13  2  0  0  0  0
 13 14  1  0  0  0  0
 15 16  2  0  0  0  0
 15 27  1  0  0  0  0
 16 17  1  0  0  0  0
 16 37  1  0  0  0  0
 17 18  1  0  0  0  0
 17 25  2  0  0  0  0
 18 19  1  0  0  0  0
 19 20  2  0  0  0  0
 19 24  1  0  0  0  0
 20 21  1  0  0  0  0
 20 38  1  0  0  0  0
 21 22  2  0  0  0  0
 21 39  1  0  0  0  0
 22 23  1  0  0  0  0
 22 40  1  0  0  0  0
 23 24  2  0  0  0  0
 23 41  1  0  0  0  0
 24 42  1  0  0  0  0
 25 26  1  0  0  0  0
 25 43  1  0  0  0  0
 26 27  2  0  0  0  0
 26 44  1  0  0  0  0
 27 28  1  0  0  0  0
 28 45  1  0  0  0  0
M  END
$$$$
