
 OpenBabel01122422513D

 44 47  0  0  0  0  0  0  0  0999 V2000
    2.2339    0.0715   -0.0212 C   0  0  0  0  0  0  0  0  0  0  0  0
    0.7863   -0.0102   -0.0309 N   0  0  0  0  0  0  0  0  0  0  0  0
    0.0260   -1.1768   -0.0752 C   0  0  0  0  0  0  0  0  0  0  0  0
    0.5136   -2.5512   -0.0837 C   0  0  0  0  0  0  0  0  0  0  0  0
    1.5750   -2.8896    0.4285 O   0  0  0  0  0  0  0  0  0  0  0  0
   -0.3359   -3.4148   -0.7542 N   0  0  0  0  0  0  0  0  0  0  0  0
   -0.1761   -4.8080   -0.9631 C   0  0  0  0  0  0  0  0  0  0  0  0
    0.7334   -5.5746   -0.2398 C   0  0  0  0  0  0  0  0  0  0  0  0
    0.8586   -6.9046   -0.5750 C   0  0  0  0  0  0  0  0  0  0  0  0
    1.7204   -7.7205    0.0961 O   0  0  0  0  0  0  0  0  0  0  0  0
    0.1678   -7.5027   -1.5549 N   0  0  0  0  0  0  0  0  0  0  0  0
   -0.7334   -6.7581   -2.2190 C   0  0  0  0  0  0  0  0  0  0  0  0
   -1.4719   -7.3419   -3.2359 C   0  0  0  0  0  0  0  0  0  0  0  0
   -2.4427   -6.6206   -3.9246 C   0  0  0  0  0  0  0  0  0  0  0  0
   -2.6404   -5.3016   -3.5679 C   0  0  0  0  0  0  0  0  0  0  0  0
   -1.9255   -4.6716   -2.6101 N   0  0  0  0  0  0  0  0  0  0  0  0
   -0.9805   -5.3961   -1.9499 C   0  0  0  0  0  0  0  0  0  0  0  0
   -1.3008   -0.7794   -0.0748 C   0  0  0  0  0  0  0  0  0  0  0  0
   -1.3432    0.6207   -0.1084 C   0  0  0  0  0  0  0  0  0  0  0  0
   -0.0483    1.1061   -0.0245 C   0  0  0  0  0  0  0  0  0  0  0  0
    0.3789    2.5094    0.0348 C   0  0  0  0  0  0  0  0  0  0  0  0
    1.4882    2.8952   -0.3150 O   0  0  0  0  0  0  0  0  0  0  0  0
   -0.6137    3.5390    0.4712 C   0  0  0  0  0  0  0  0  0  0  0  0
   -0.6781    4.7667   -0.2017 C   0  0  0  0  0  0  0  0  0  0  0  0
   -1.7074    5.6709    0.0913 C   0  0  0  0  0  0  0  0  0  0  0  0
   -2.6714    5.3540    1.0500 C   0  0  0  0  0  0  0  0  0  0  0  0
   -2.5691    4.1659    1.7680 C   0  0  0  0  0  0  0  0  0  0  0  0
   -1.5231    3.2862    1.5002 C   0  0  0  0  0  0  0  0  0  0  0  0
   -1.4317    2.1819    2.2538 F   0  0  0  0  0  0  0  0  0  0  0  0
    2.6880   -0.8965    0.1759 H   0  0  0  0  0  0  0  0  0  0  0  0
    2.5460    0.7634    0.7649 H   0  0  0  0  0  0  0  0  0  0  0  0
    2.5604    0.4285   -1.0041 H   0  0  0  0  0  0  0  0  0  0  0  0
   -1.0812   -3.0059   -1.3133 H   0  0  0  0  0  0  0  0  0  0  0  0
    1.3152   -5.1563    0.5697 H   0  0  0  0  0  0  0  0  0  0  0  0
    2.1574   -7.1943    0.7829 H   0  0  0  0  0  0  0  0  0  0  0  0
   -1.2852   -8.3822   -3.4925 H   0  0  0  0  0  0  0  0  0  0  0  0
   -3.0265   -7.0826   -4.7128 H   0  0  0  0  0  0  0  0  0  0  0  0
   -3.3999   -4.6989   -4.0595 H   0  0  0  0  0  0  0  0  0  0  0  0
   -2.1602   -1.4380   -0.0538 H   0  0  0  0  0  0  0  0  0  0  0  0
   -2.2476    1.2158   -0.1429 H   0  0  0  0  0  0  0  0  0  0  0  0
    0.0526    5.0125   -0.9703 H   0  0  0  0  0  0  0  0  0  0  0  0
   -1.7702    6.6155   -0.4451 H   0  0  0  0  0  0  0  0  0  0  0  0
   -3.4951    6.0368    1.2469 H   0  0  0  0  0  0  0  0  0  0  0  0
   -3.3013    3.9071    2.5272 H   0  0  0  0  0  0  0  0  0  0  0  0
  1  2  1  0  0  0  0
  1 30  1  0  0  0  0
  1 31  1  0  0  0  0
  1 32  1  0  0  0  0
  2  3  1  0  0  0  0
  2 20  1  0  0  0  0
  3  4  1  0  0  0  0
  3 18  2  0  0  0  0
  4  5  2  0  0  0  0
  4  6  1  0  0  0  0
  6  7  1  0  0  0  0
  6 33  1  0  0  0  0
  7  8  2  0  0  0  0
  7 17  1  0  0  0  0
  8  9  1  0  0  0  0
  8 34  1  0  0  0  0
  9 10  1  0  0  0  0
  9 11  2  0  0  0  0
 10 35  1  0  0  0  0
 11 12  1  0  0  0  0
 12 13  2  0  0  0  0
 12 17  1  0  0  0  0
 13 14  1  0  0  0  0
 13 36  1  0  0  0  0
 14 15  2  0  0  0  0
 14 37  1  0  0  0  0
 15 16  1  0  0  0  0
 15 38  1  0  0  0  0
 16 17  2  0  0  0  0
 18 19  1  0  0  0  0
 18 39  1  0  0  0  0
 19 20  2  0  0  0  0
 19 40  1  0  0  0  0
 20 21  1  0  0  0  0
 21 22  2  0  0  0  0
 21 23  1  0  0  0  0
 23 24  2  0  0  0  0
 23 28  1  0  0  0  0
 24 25  1  0  0  0  0
 24 41  1  0  0  0  0
 25 26  2  0  0  0  0
 25 42  1  0  0  0  0
 26 27  1  0  0  0  0
 26 43  1  0  0  0  0
 27 28  2  0  0  0  0
 27 44  1  0  0  0  0
 28 29  1  0  0  0  0
M  END
$$$$
