
 OpenBabel01122422513D

 45 48  0  0  0  0  0  0  0  0999 V2000
    0.6561   -1.6103    1.2548 C   0  0  0  0  0  0  0  0  0  0  0  0
    1.9808   -1.0969    1.1045 O   0  0  0  0  0  0  0  0  0  0  0  0
    2.7752   -1.7321    0.1802 C   0  0  0  0  0  0  0  0  0  0  0  0
    2.2454   -2.3855   -0.9323 C   0  0  0  0  0  0  0  0  0  0  0  0
    3.0850   -3.0237   -1.8441 C   0  0  0  0  0  0  0  0  0  0  0  0
    4.4597   -3.0221   -1.7054 C   0  0  0  0  0  0  0  0  0  0  0  0
    5.1600   -3.6773   -2.6455 N   0  0  0  0  0  0  0  0  0  0  0  0
    6.5039   -3.6999   -2.5469 C   0  0  0  0  0  0  0  0  0  0  0  0
    7.1970   -3.0694   -1.5428 C   0  0  0  0  0  0  0  0  0  0  0  0
    6.4608   -2.3827   -0.5830 C   0  0  0  0  0  0  0  0  0  0  0  0
    5.0396   -2.3465   -0.6102 C   0  0  0  0  0  0  0  0  0  0  0  0
    4.1778   -1.6979    0.3514 C   0  0  0  0  0  0  0  0  0  0  0  0
    4.7960   -1.0767    1.5707 C   0  0  0  0  0  0  0  0  0  0  0  0
    5.8245   -1.5715    2.0323 O   0  0  0  0  0  0  0  0  0  0  0  0
    4.1456   -0.0051    2.1768 N   0  0  0  0  0  0  0  0  0  0  0  0
    4.6486    0.6905    3.2633 C   0  0  0  0  0  0  0  0  0  0  0  0
    5.9613    0.8578    3.4846 C   0  0  0  0  0  0  0  0  0  0  0  0
    6.4689    1.5124    4.7187 C   0  0  0  0  0  0  0  0  0  0  0  0
    7.6856    1.6503    4.8380 O   0  0  0  0  0  0  0  0  0  0  0  0
    5.4950    1.8497    5.6732 N   0  0  0  0  0  0  0  0  0  0  0  0
    5.9316    2.3063    6.9550 C   0  0  0  0  0  0  0  0  0  0  0  0
    6.8504    3.3563    7.0697 C   0  0  0  0  0  0  0  0  0  0  0  0
    7.2849    3.7826    8.3267 C   0  0  0  0  0  0  0  0  0  0  0  0
    6.8340    3.1375    9.4768 C   0  0  0  0  0  0  0  0  0  0  0  0
    5.9332    2.0786    9.3730 C   0  0  0  0  0  0  0  0  0  0  0  0
    5.4658    1.6775    8.1185 C   0  0  0  0  0  0  0  0  0  0  0  0
    4.1406    1.7235    5.3850 C   0  0  0  0  0  0  0  0  0  0  0  0
    3.7064    1.2332    4.2144 C   0  0  0  0  0  0  0  0  0  0  0  0
    0.1923   -1.0918    2.0990 H   0  0  0  0  0  0  0  0  0  0  0  0
    0.6736   -2.6814    1.4838 H   0  0  0  0  0  0  0  0  0  0  0  0
    0.0415   -1.4034    0.3729 H   0  0  0  0  0  0  0  0  0  0  0  0
    1.1794   -2.4228   -1.1333 H   0  0  0  0  0  0  0  0  0  0  0  0
    2.6501   -3.5400   -2.6984 H   0  0  0  0  0  0  0  0  0  0  0  0
    7.0202   -4.2548   -3.3248 H   0  0  0  0  0  0  0  0  0  0  0  0
    8.2793   -3.1076   -1.4951 H   0  0  0  0  0  0  0  0  0  0  0  0
    7.0253   -1.8803    0.1984 H   0  0  0  0  0  0  0  0  0  0  0  0
    3.1572    0.0871    1.9599 H   0  0  0  0  0  0  0  0  0  0  0  0
    6.7317    0.5018    2.8135 H   0  0  0  0  0  0  0  0  0  0  0  0
    7.2224    3.8610    6.1813 H   0  0  0  0  0  0  0  0  0  0  0  0
    7.9862    4.6093    8.4040 H   0  0  0  0  0  0  0  0  0  0  0  0
    7.1959    3.4518   10.4525 H   0  0  0  0  0  0  0  0  0  0  0  0
    5.6097    1.5527   10.2675 H   0  0  0  0  0  0  0  0  0  0  0  0
    4.7952    0.8248    8.0534 H   0  0  0  0  0  0  0  0  0  0  0  0
    3.4452    2.0892    6.1353 H   0  0  0  0  0  0  0  0  0  0  0  0
    2.6435    1.1886    4.0033 H   0  0  0  0  0  0  0  0  0  0  0  0
  1  2  1  0  0  0  0
  1 29  1  0  0  0  0
  1 30  1  0  0  0  0
  1 31  1  0  0  0  0
  2  3  1  0  0  0  0
  3  4  2  0  0  0  0
  3 12  1  0  0  0  0
  4  5  1  0  0  0  0
  4 32  1  0  0  0  0
  5  6  2  0  0  0  0
  5 33  1  0  0  0  0
  6  7  1  0  0  0  0
  6 11  1  0  0  0  0
  7  8  2  0  0  0  0
  8  9  1  0  0  0  0
  8 34  1  0  0  0  0
  9 10  2  0  0  0  0
  9 35  1  0  0  0  0
 10 11  1  0  0  0  0
 10 36  1  0  0  0  0
 11 12  2  0  0  0  0
 12 13  1  0  0  0  0
 13 14  2  0  0  0  0
 13 15  1  0  0  0  0
 15 16  1  0  0  0  0
 15 37  1  0  0  0  0
 16 17  2  0  0  0  0
 16 28  1  0  0  0  0
 17 18  1  0  0  0  0
 17 38  1  0  0  0  0
 18 19  2  0  0  0  0
 18 20  1  0  0  0  0
 20 21  1  0  0  0  0
 20 27  1  0  0  0  0
 21 22  2  0  0  0  0
 21 26  1  0  0  0  0
 22 23  1  0  0  0  0
 22 39  1  0  0  0  0
 23 24  2  0  0  0  0
 23 40  1  0  0  0  0
 24 25  1  0  0  0  0
 24 41  1  0  0  0  0
 25 26  2  0  0  0  0
 25 42  1  0  0  0  0
 26 43  1  0  0  0  0
 27 28  2  0  0  0  0
 27 44  1  0  0  0  0
 28 45  1  0  0  0  0
M  END
$$$$
