
 OpenBabel01122422523D

 45 48  0  0  0  0  0  0  0  0999 V2000
    0.8849   -0.0965    0.0155 O   0  0  0  0  0  0  0  0  0  0  0  0
    2.1103   -0.0751    0.0535 C   0  0  0  0  0  0  0  0  0  0  0  0
    2.8308    0.8228    0.7983 N   0  0  0  0  0  0  0  0  0  0  0  0
    2.1751    1.8860    1.5534 C   0  0  0  0  0  0  0  0  0  0  0  0
    3.1624    2.7878    2.3231 C   0  0  0  0  0  0  0  0  0  0  0  0
    3.8798    1.9577    3.1583 F   0  0  0  0  0  0  0  0  0  0  0  0
    4.1064    3.2490    1.4429 F   0  0  0  0  0  0  0  0  0  0  0  0
    2.5023    3.9085    3.1023 C   0  0  0  0  0  0  0  0  0  0  0  0
    2.6611    3.9595    4.5029 C   0  0  0  0  0  0  0  0  0  0  0  0
    2.0968    4.9880    5.2495 C   0  0  0  0  0  0  0  0  0  0  0  0
    1.3741    5.9827    4.6048 C   0  0  0  0  0  0  0  0  0  0  0  0
    1.2110    5.9482    3.2121 C   0  0  0  0  0  0  0  0  0  0  0  0
    0.4921    6.9553    2.5551 C   0  0  0  0  0  0  0  0  0  0  0  0
    0.3399    6.9124    1.1770 C   0  0  0  0  0  0  0  0  0  0  0  0
    0.9114    5.8549    0.5023 C   0  0  0  0  0  0  0  0  0  0  0  0
    1.6155    4.8697    1.1044 N   0  0  0  0  0  0  0  0  0  0  0  0
    1.7749    4.9035    2.4413 C   0  0  0  0  0  0  0  0  0  0  0  0
    2.9015   -1.0910   -0.6889 C   0  0  0  0  0  0  0  0  0  0  0  0
    2.3188   -2.3545   -0.8544 C   0  0  0  0  0  0  0  0  0  0  0  0
    3.0058   -3.3655   -1.5436 C   0  0  0  0  0  0  0  0  0  0  0  0
    2.4080   -4.6423   -1.7241 N   0  0  0  0  0  0  0  0  0  0  0  0
    1.1548   -5.0400   -1.3181 C   0  0  0  0  0  0  0  0  0  0  0  0
    0.9951   -6.3257   -1.7798 C   0  0  0  0  0  0  0  0  0  0  0  0
    2.1206   -6.7535   -2.4237 N   0  0  0  0  0  0  0  0  0  0  0  0
    2.9529   -5.7333   -2.3683 C   0  0  0  0  0  0  0  0  0  0  0  0
    4.2769   -3.0969   -2.0681 C   0  0  0  0  0  0  0  0  0  0  0  0
    4.8531   -1.8362   -1.9135 C   0  0  0  0  0  0  0  0  0  0  0  0
    4.1713   -0.8401   -1.2186 C   0  0  0  0  0  0  0  0  0  0  0  0
    4.7564    0.3858   -1.0648 O   0  0  0  0  0  0  0  0  0  0  0  0
    3.8269    0.9086    0.6037 H   0  0  0  0  0  0  0  0  0  0  0  0
    1.4886    1.3956    2.2538 H   0  0  0  0  0  0  0  0  0  0  0  0
    1.5743    2.4470    0.8345 H   0  0  0  0  0  0  0  0  0  0  0  0
    3.2401    3.1930    5.0171 H   0  0  0  0  0  0  0  0  0  0  0  0
    2.2288    5.0175    6.3282 H   0  0  0  0  0  0  0  0  0  0  0  0
    0.9430    6.7895    5.1937 H   0  0  0  0  0  0  0  0  0  0  0  0
    0.0539    7.7800    3.1117 H   0  0  0  0  0  0  0  0  0  0  0  0
   -0.2050    7.6842    0.6460 H   0  0  0  0  0  0  0  0  0  0  0  0
    0.8215    5.7657   -0.5770 H   0  0  0  0  0  0  0  0  0  0  0  0
    1.3326   -2.5173   -0.4262 H   0  0  0  0  0  0  0  0  0  0  0  0
    0.4756   -4.4065   -0.7707 H   0  0  0  0  0  0  0  0  0  0  0  0
    0.1214   -6.9546   -1.6896 H   0  0  0  0  0  0  0  0  0  0  0  0
    3.9492   -5.7470   -2.7808 H   0  0  0  0  0  0  0  0  0  0  0  0
    4.8485   -3.8424   -2.6153 H   0  0  0  0  0  0  0  0  0  0  0  0
    5.8321   -1.6520   -2.3483 H   0  0  0  0  0  0  0  0  0  0  0  0
    5.5501    0.4371   -1.6278 H   0  0  0  0  0  0  0  0  0  0  0  0
  1  2  2  0  0  0  0
  2  3  1  0  0  0  0
  2 18  1  0  0  0  0
  3  4  1  0  0  0  0
  3 30  1  0  0  0  0
  4  5  1  0  0  0  0
  4 31  1  0  0  0  0
  4 32  1  0  0  0  0
  5  6  1  0  0  0  0
  5  7  1  0  0  0  0
  5  8  1  0  0  0  0
  8  9  2  0  0  0  0
  8 17  1  0  0  0  0
  9 10  1  0  0  0  0
  9 33  1  0  0  0  0
 10 11  2  0  0  0  0
 10 34  1  0  0  0  0
 11 12  1  0  0  0  0
 11 35  1  0  0  0  0
 12 13  2  0  0  0  0
 12 17  1  0  0  0  0
 13 14  1  0  0  0  0
 13 36  1  0  0  0  0
 14 15  2  0  0  0  0
 14 37  1  0  0  0  0
 15 16  1  0  0  0  0
 15 38  1  0  0  0  0
 16 17  2  0  0  0  0
 18 19  2  0  0  0  0
 18 28  1  0  0  0  0
 19 20  1  0  0  0  0
 19 39  1  0  0  0  0
 20 21  1  0  0  0  0
 20 26  2  0  0  0  0
 21 22  1  0  0  0  0
 21 25  1  0  0  0  0
 22 23  2  0  0  0  0
 22 40  1  0  0  0  0
 23 24  1  0  0  0  0
 23 41  1  0  0  0  0
 24 25  2  0  0  0  0
 25 42  1  0  0  0  0
 26 27  1  0  0  0  0
 26 43  1  0  0  0  0
 27 28  2  0  0  0  0
 27 44  1  0  0  0  0
 28 29  1  0  0  0  0
 29 45  1  0  0  0  0
M  END
$$$$
