
 OpenBabel01122422523D

 42 45  0  0  0  0  0  0  0  0999 V2000
    0.9754    0.1453   -0.1654 O   0  0  0  0  0  0  0  0  0  0  0  0
    2.1745    0.3297    0.0389 C   0  0  0  0  0  0  0  0  0  0  0  0
    2.7330    0.6363    1.2652 N   0  0  0  0  0  0  0  0  0  0  0  0
    1.9853    0.7623    2.4312 C   0  0  0  0  0  0  0  0  0  0  0  0
    0.6627    0.6139    2.5051 N   0  0  0  0  0  0  0  0  0  0  0  0
    0.3371    0.7652    3.8090 N   0  0  0  0  0  0  0  0  0  0  0  0
   -1.0029    0.6067    4.2859 C   0  0  0  0  0  0  0  0  0  0  0  0
   -2.0141    0.3048    3.3736 C   0  0  0  0  0  0  0  0  0  0  0  0
   -3.3136    0.1294    3.8429 C   0  0  0  0  0  0  0  0  0  0  0  0
   -3.5677    0.2554    5.2033 C   0  0  0  0  0  0  0  0  0  0  0  0
   -2.5082    0.5587    6.0439 C   0  0  0  0  0  0  0  0  0  0  0  0
   -1.2361    0.7399    5.6205 N   0  0  0  0  0  0  0  0  0  0  0  0
    1.4506    1.0603    4.5656 C   0  0  0  0  0  0  0  0  0  0  0  0
    2.5245    1.0620    3.7041 C   0  0  0  0  0  0  0  0  0  0  0  0
    3.0727    0.2353   -1.1604 C   0  0  0  0  0  0  0  0  0  0  0  0
    2.3988    0.0601   -2.3867 C   0  0  0  0  0  0  0  0  0  0  0  0
    3.1133   -0.0179   -3.5659 C   0  0  0  0  0  0  0  0  0  0  0  0
    4.4456    0.1237   -3.6236 N   0  0  0  0  0  0  0  0  0  0  0  0
    5.0837    0.2987   -2.4445 C   0  0  0  0  0  0  0  0  0  0  0  0
    4.4699    0.2909   -1.1836 C   0  0  0  0  0  0  0  0  0  0  0  0
    5.2189    0.3185   -0.0219 O   0  0  0  0  0  0  0  0  0  0  0  0
    6.4428   -0.3373   -0.0554 C   0  0  0  0  0  0  0  0  0  0  0  0
    7.5539    0.3161    0.4891 C   0  0  0  0  0  0  0  0  0  0  0  0
    8.8215   -0.2703    0.3756 C   0  0  0  0  0  0  0  0  0  0  0  0
    8.9687   -1.4893   -0.2740 C   0  0  0  0  0  0  0  0  0  0  0  0
   10.1894   -2.0208   -0.4208 F   0  0  0  0  0  0  0  0  0  0  0  0
    7.8656   -2.1646   -0.7799 C   0  0  0  0  0  0  0  0  0  0  0  0
    6.5946   -1.6055   -0.6403 C   0  0  0  0  0  0  0  0  0  0  0  0
    3.7305    0.7687    1.3459 H   0  0  0  0  0  0  0  0  0  0  0  0
   -1.8030    0.2063    2.3096 H   0  0  0  0  0  0  0  0  0  0  0  0
   -4.1157   -0.1101    3.1500 H   0  0  0  0  0  0  0  0  0  0  0  0
   -4.5698    0.1180    5.5988 H   0  0  0  0  0  0  0  0  0  0  0  0
   -2.6649    0.6637    7.1134 H   0  0  0  0  0  0  0  0  0  0  0  0
    1.3676    1.2250    5.6312 H   0  0  0  0  0  0  0  0  0  0  0  0
    3.5555    1.2443    3.9683 H   0  0  0  0  0  0  0  0  0  0  0  0
    1.3154   -0.0247   -2.4280 H   0  0  0  0  0  0  0  0  0  0  0  0
    2.6139   -0.1910   -4.5147 H   0  0  0  0  0  0  0  0  0  0  0  0
    6.1599    0.4125   -2.5551 H   0  0  0  0  0  0  0  0  0  0  0  0
    7.4508    1.2834    0.9685 H   0  0  0  0  0  0  0  0  0  0  0  0
    9.7033    0.2285    0.7744 H   0  0  0  0  0  0  0  0  0  0  0  0
    8.0005   -3.1117   -1.2938 H   0  0  0  0  0  0  0  0  0  0  0  0
    5.7393   -2.1424   -1.0428 H   0  0  0  0  0  0  0  0  0  0  0  0
  1  2  2  0  0  0  0
  2  3  1  0  0  0  0
  2 15  1  0  0  0  0
  3  4  1  0  0  0  0
  3 29  1  0  0  0  0
  4  5  2  0  0  0  0
  4 14  1  0  0  0  0
  5  6  1  0  0  0  0
  6  7  1  0  0  0  0
  6 13  1  0  0  0  0
  7  8  2  0  0  0  0
  7 12  1  0  0  0  0
  8  9  1  0  0  0  0
  8 30  1  0  0  0  0
  9 10  2  0  0  0  0
  9 31  1  0  0  0  0
 10 11  1  0  0  0  0
 10 32  1  0  0  0  0
 11 12  2  0  0  0  0
 11 33  1  0  0  0  0
 13 14  2  0  0  0  0
 13 34  1  0  0  0  0
 14 35  1  0  0  0  0
 15 16  2  0  0  0  0
 15 20  1  0  0  0  0
 16 17  1  0  0  0  0
 16 36  1  0  0  0  0
 17 18  2  0  0  0  0
 17 37  1  0  0  0  0
 18 19  1  0  0  0  0
 19 20  2  0  0  0  0
 19 38  1  0  0  0  0
 20 21  1  0  0  0  0
 21 22  1  0  0  0  0
 22 23  2  0  0  0  0
 22 28  1  0  0  0  0
 23 24  1  0  0  0  0
 23 39  1  0  0  0  0
 24 25  2  0  0  0  0
 24 40  1  0  0  0  0
 25 26  1  0  0  0  0
 25 27  1  0  0  0  0
 27 28  2  0  0  0  0
 27 41  1  0  0  0  0
 28 42  1  0  0  0  0
M  END
$$$$
