
 OpenBabel01122422523D

 52 55  0  0  0  0  0  0  0  0999 V2000
    1.1046   -0.5210    0.3845 C   0  0  0  0  0  0  0  0  0  0  0  0
    2.5075   -0.0338    0.0528 C   0  0  0  0  0  0  0  0  0  0  0  0
    2.9297    1.0809    0.9593 C   0  0  0  0  0  0  0  0  0  0  0  0
    2.8582    2.4612    0.8074 C   0  0  0  0  0  0  0  0  0  0  0  0
    2.3033    3.1686   -0.3412 C   0  0  0  0  0  0  0  0  0  0  0  0
    1.3972    2.6928   -1.0164 O   0  0  0  0  0  0  0  0  0  0  0  0
    2.9274    4.3810   -0.6079 N   0  0  0  0  0  0  0  0  0  0  0  0
    2.5005    5.2963   -1.5477 C   0  0  0  0  0  0  0  0  0  0  0  0
    1.2504    5.3891   -1.9973 C   0  0  0  0  0  0  0  0  0  0  0  0
    0.8541    6.3720   -3.0202 C   0  0  0  0  0  0  0  0  0  0  0  0
   -0.3276    6.3441   -3.3608 O   0  0  0  0  0  0  0  0  0  0  0  0
    1.8734    7.1833   -3.5263 N   0  0  0  0  0  0  0  0  0  0  0  0
    1.6456    8.0775   -4.6226 C   0  0  0  0  0  0  0  0  0  0  0  0
    0.3638    8.5802   -4.8972 C   0  0  0  0  0  0  0  0  0  0  0  0
    0.0976    9.3132   -6.0549 C   0  0  0  0  0  0  0  0  0  0  0  0
    1.1202    9.5749   -6.9569 C   0  0  0  0  0  0  0  0  0  0  0  0
    2.4160    9.1475   -6.6729 C   0  0  0  0  0  0  0  0  0  0  0  0
    2.6821    8.4213   -5.5034 C   0  0  0  0  0  0  0  0  0  0  0  0
    3.1834    7.1234   -3.0677 N   0  0  0  0  0  0  0  0  0  0  0  0
    3.4435    6.2676   -2.1296 C   0  0  0  0  0  0  0  0  0  0  0  0
    3.3608    3.0276    2.0136 C   0  0  0  0  0  0  0  0  0  0  0  0
    3.7176    1.9965    2.8560 C   0  0  0  0  0  0  0  0  0  0  0  0
    4.2593    2.0284    4.2471 C   0  0  0  0  0  0  0  0  0  0  0  0
    5.7596    2.1712    4.2468 C   0  0  0  0  0  0  0  0  0  0  0  0
    6.3507    3.4446    4.2216 C   0  0  0  0  0  0  0  0  0  0  0  0
    7.7353    3.5791    4.1232 C   0  0  0  0  0  0  0  0  0  0  0  0
    8.5410    2.4448    4.0488 C   0  0  0  0  0  0  0  0  0  0  0  0
    7.9660    1.1752    4.0896 C   0  0  0  0  0  0  0  0  0  0  0  0
    6.5816    1.0376    4.1873 C   0  0  0  0  0  0  0  0  0  0  0  0
    3.4995    0.8212    2.1825 N   0  0  0  0  0  0  0  0  0  0  0  0
    0.7738   -1.2599   -0.3523 H   0  0  0  0  0  0  0  0  0  0  0  0
    0.3829    0.3028    0.3887 H   0  0  0  0  0  0  0  0  0  0  0  0
    1.0772   -0.9946    1.3720 H   0  0  0  0  0  0  0  0  0  0  0  0
    2.5454    0.2939   -0.9920 H   0  0  0  0  0  0  0  0  0  0  0  0
    3.2105   -0.8716    0.1384 H   0  0  0  0  0  0  0  0  0  0  0  0
    3.8366    4.5155   -0.1803 H   0  0  0  0  0  0  0  0  0  0  0  0
    0.4434    4.7583   -1.6528 H   0  0  0  0  0  0  0  0  0  0  0  0
   -0.4626    8.4159   -4.2114 H   0  0  0  0  0  0  0  0  0  0  0  0
   -0.9152    9.6553   -6.2497 H   0  0  0  0  0  0  0  0  0  0  0  0
    0.9044   10.1093   -7.8780 H   0  0  0  0  0  0  0  0  0  0  0  0
    3.2168    9.3550   -7.3777 H   0  0  0  0  0  0  0  0  0  0  0  0
    3.6962    8.0698   -5.3296 H   0  0  0  0  0  0  0  0  0  0  0  0
    4.4770    6.2275   -1.7385 H   0  0  0  0  0  0  0  0  0  0  0  0
    3.4123    4.0795    2.2642 H   0  0  0  0  0  0  0  0  0  0  0  0
    3.9684    1.1230    4.7945 H   0  0  0  0  0  0  0  0  0  0  0  0
    3.8077    2.8636    4.7975 H   0  0  0  0  0  0  0  0  0  0  0  0
    5.7307    4.3371    4.2617 H   0  0  0  0  0  0  0  0  0  0  0  0
    8.1844    4.5679    4.0929 H   0  0  0  0  0  0  0  0  0  0  0  0
    9.6183    2.5488    3.9540 H   0  0  0  0  0  0  0  0  0  0  0  0
    8.5969    0.2927    4.0317 H   0  0  0  0  0  0  0  0  0  0  0  0
    6.1458    0.0420    4.2026 H   0  0  0  0  0  0  0  0  0  0  0  0
    3.6971   -0.1037    2.5434 H   0  0  0  0  0  0  0  0  0  0  0  0
  1  2  1  0  0  0  0
  1 31  1  0  0  0  0
  1 32  1  0  0  0  0
  1 33  1  0  0  0  0
  2  3  1  0  0  0  0
  2 34  1  0  0  0  0
  2 35  1  0  0  0  0
  3  4  2  0  0  0  0
  3 30  1  0  0  0  0
  4  5  1  0  0  0  0
  4 21  1  0  0  0  0
  5  6  2  0  0  0  0
  5  7  1  0  0  0  0
  7  8  1  0  0  0  0
  7 36  1  0  0  0  0
  8  9  2  0  0  0  0
  8 20  1  0  0  0  0
  9 10  1  0  0  0  0
  9 37  1  0  0  0  0
 10 11  2  0  0  0  0
 10 12  1  0  0  0  0
 12 13  1  0  0  0  0
 12 19  1  0  0  0  0
 13 14  2  0  0  0  0
 13 18  1  0  0  0  0
 14 15  1  0  0  0  0
 14 38  1  0  0  0  0
 15 16  2  0  0  0  0
 15 39  1  0  0  0  0
 16 17  1  0  0  0  0
 16 40  1  0  0  0  0
 17 18  2  0  0  0  0
 17 41  1  0  0  0  0
 18 42  1  0  0  0  0
 19 20  2  0  0  0  0
 20 43  1  0  0  0  0
 21 22  2  0  0  0  0
 21 44  1  0  0  0  0
 22 23  1  0  0  0  0
 22 30  1  0  0  0  0
 23 24  1  0  0  0  0
 23 45  1  0  0  0  0
 23 46  1  0  0  0  0
 24 25  2  0  0  0  0
 24 29  1  0  0  0  0
 25 26  1  0  0  0  0
 25 47  1  0  0  0  0
 26 27  2  0  0  0  0
 26 48  1  0  0  0  0
 27 28  1  0  0  0  0
 27 49  1  0  0  0  0
 28 29  2  0  0  0  0
 28 50  1  0  0  0  0
 29 51  1  0  0  0  0
 30 52  1  0  0  0  0
M  END
$$$$
