
 OpenBabel01122422523D

 41 44  0  0  0  0  0  0  0  0999 V2000
    2.0840   -0.7315   -1.0944 O   0  0  0  0  0  0  0  0  0  0  0  0
    3.0746   -0.4860   -0.4101 C   0  0  0  0  0  0  0  0  0  0  0  0
    3.2550   -0.9499    0.8778 N   0  0  0  0  0  0  0  0  0  0  0  0
    2.3813   -1.6970    1.6470 C   0  0  0  0  0  0  0  0  0  0  0  0
    1.1914   -2.2337    1.2639 C   0  0  0  0  0  0  0  0  0  0  0  0
    0.3260   -2.9375    2.1355 N   0  0  0  0  0  0  0  0  0  0  0  0
   -0.9474   -3.4913    1.6904 C   0  0  0  0  0  0  0  0  0  0  0  0
   -2.0170   -3.7132    2.5826 C   0  0  0  0  0  0  0  0  0  0  0  0
   -3.2308   -4.2855    2.1755 C   0  0  0  0  0  0  0  0  0  0  0  0
   -3.4155   -4.6401    0.8485 C   0  0  0  0  0  0  0  0  0  0  0  0
   -2.3909   -4.4112   -0.0620 C   0  0  0  0  0  0  0  0  0  0  0  0
   -1.1751   -3.8344    0.3480 C   0  0  0  0  0  0  0  0  0  0  0  0
    0.7178   -3.1293    3.4872 C   0  0  0  0  0  0  0  0  0  0  0  0
    0.1236   -3.7572    4.3632 O   0  0  0  0  0  0  0  0  0  0  0  0
    2.0262   -2.5447    3.8946 C   0  0  0  0  0  0  0  0  0  0  0  0
    2.7970   -1.8902    3.0186 C   0  0  0  0  0  0  0  0  0  0  0  0
    4.1948    0.3066   -0.9822 C   0  0  0  0  0  0  0  0  0  0  0  0
    5.4044    0.5597   -0.4205 N   0  0  0  0  0  0  0  0  0  0  0  0
    6.1670    0.9978   -1.4888 N   0  0  0  0  0  0  0  0  0  0  0  0
    7.4387    1.5730   -1.5976 C   0  0  0  0  0  0  0  0  0  0  0  0
    7.9590    2.4114   -0.4955 C   0  0  0  0  0  0  0  0  0  0  0  0
    7.0844    2.6563    0.5051 F   0  0  0  0  0  0  0  0  0  0  0  0
    9.0855    1.8970    0.0562 F   0  0  0  0  0  0  0  0  0  0  0  0
    8.3136    3.6381   -0.9841 F   0  0  0  0  0  0  0  0  0  0  0  0
    8.0625    1.5676   -2.7979 C   0  0  0  0  0  0  0  0  0  0  0  0
    7.3231    0.9331   -3.9155 C   0  0  0  0  0  0  0  0  0  0  0  0
    6.0641    0.6328   -3.8888 N   0  0  0  0  0  0  0  0  0  0  0  0
    5.4603    0.7699   -2.6765 C   0  0  0  0  0  0  0  0  0  0  0  0
    4.1471    0.8168   -2.2994 C   0  0  0  0  0  0  0  0  0  0  0  0
    4.1347   -0.6591    1.2973 H   0  0  0  0  0  0  0  0  0  0  0  0
    0.8294   -2.1048    0.2542 H   0  0  0  0  0  0  0  0  0  0  0  0
   -1.9446   -3.4433    3.6313 H   0  0  0  0  0  0  0  0  0  0  0  0
   -4.0133   -4.4640    2.9087 H   0  0  0  0  0  0  0  0  0  0  0  0
   -4.3391   -5.1135    0.5304 H   0  0  0  0  0  0  0  0  0  0  0  0
   -2.5257   -4.6963   -1.1045 H   0  0  0  0  0  0  0  0  0  0  0  0
   -0.4041   -3.7138   -0.4086 H   0  0  0  0  0  0  0  0  0  0  0  0
    2.3041   -2.6864    4.9268 H   0  0  0  0  0  0  0  0  0  0  0  0
    3.7567   -1.4963    3.3500 H   0  0  0  0  0  0  0  0  0  0  0  0
    8.9982    2.0648   -3.0193 H   0  0  0  0  0  0  0  0  0  0  0  0
    7.9019    0.7540   -4.8362 H   0  0  0  0  0  0  0  0  0  0  0  0
    3.2897    0.8600   -2.9519 H   0  0  0  0  0  0  0  0  0  0  0  0
  1  2  2  0  0  0  0
  2  3  1  0  0  0  0
  2 17  1  0  0  0  0
  3  4  1  0  0  0  0
  3 30  1  0  0  0  0
  4  5  2  0  0  0  0
  4 16  1  0  0  0  0
  5  6  1  0  0  0  0
  5 31  1  0  0  0  0
  6  7  1  0  0  0  0
  6 13  1  0  0  0  0
  7  8  2  0  0  0  0
  7 12  1  0  0  0  0
  8  9  1  0  0  0  0
  8 32  1  0  0  0  0
  9 10  2  0  0  0  0
  9 33  1  0  0  0  0
 10 11  1  0  0  0  0
 10 34  1  0  0  0  0
 11 12  2  0  0  0  0
 11 35  1  0  0  0  0
 12 36  1  0  0  0  0
 13 14  2  0  0  0  0
 13 15  1  0  0  0  0
 15 16  2  0  0  0  0
 15 37  1  0  0  0  0
 16 38  1  0  0  0  0
 17 18  2  0  0  0  0
 17 29  1  0  0  0  0
 18 19  1  0  0  0  0
 19 20  1  0  0  0  0
 19 28  1  0  0  0  0
 20 21  1  0  0  0  0
 20 25  2  0  0  0  0
 21 22  1  0  0  0  0
 21 23  1  0  0  0  0
 21 24  1  0  0  0  0
 25 26  1  0  0  0  0
 25 39  1  0  0  0  0
 26 27  2  0  0  0  0
 26 40  1  0  0  0  0
 27 28  1  0  0  0  0
 28 29  2  0  0  0  0
 29 41  1  0  0  0  0
M  END
$$$$
