
 OpenBabel01122422523D

 45 48  0  0  0  0  0  0  0  0999 V2000
    1.0045    3.3035    3.5065 C   0  0  0  0  0  0  0  0  0  0  0  0
    1.2164    1.9165    3.1740 N   0  0  0  0  0  0  0  0  0  0  0  0
    1.6532    0.9946    4.0877 C   0  0  0  0  0  0  0  0  0  0  0  0
    1.7579   -0.1993    3.5647 N   0  0  0  0  0  0  0  0  0  0  0  0
    1.3837   -0.0437    2.2549 C   0  0  0  0  0  0  0  0  0  0  0  0
    1.3329   -1.0330    1.2654 C   0  0  0  0  0  0  0  0  0  0  0  0
    0.9232   -0.6811   -0.0153 C   0  0  0  0  0  0  0  0  0  0  0  0
    0.5771    0.6389   -0.3048 C   0  0  0  0  0  0  0  0  0  0  0  0
    0.6275    1.6827    0.6581 C   0  0  0  0  0  0  0  0  0  0  0  0
    0.2444    3.0771    0.2043 C   0  0  0  0  0  0  0  0  0  0  0  0
   -1.1929    3.2492    0.1995 N   0  0  0  0  0  0  0  0  0  0  0  0
   -1.8014    4.4907    0.2918 C   0  0  0  0  0  0  0  0  0  0  0  0
   -1.1939    5.5410    0.4068 O   0  0  0  0  0  0  0  0  0  0  0  0
   -3.2943    4.4701    0.2328 C   0  0  0  0  0  0  0  0  0  0  0  0
   -3.9900    3.3516    0.6980 C   0  0  0  0  0  0  0  0  0  0  0  0
   -5.3660    3.3574    0.6220 C   0  0  0  0  0  0  0  0  0  0  0  0
   -6.0742    4.3830    0.1186 N   0  0  0  0  0  0  0  0  0  0  0  0
   -5.3897    5.4568   -0.3372 C   0  0  0  0  0  0  0  0  0  0  0  0
   -6.1041    6.4993   -0.9241 O   0  0  0  0  0  0  0  0  0  0  0  0
   -7.3194    6.1762   -1.5027 C   0  0  0  0  0  0  0  0  0  0  0  0
   -7.4878    5.0462   -2.3172 C   0  0  0  0  0  0  0  0  0  0  0  0
   -8.7361    4.7632   -2.8755 C   0  0  0  0  0  0  0  0  0  0  0  0
   -9.8011    5.6295   -2.6557 C   0  0  0  0  0  0  0  0  0  0  0  0
  -10.9929    5.3561   -3.2012 F   0  0  0  0  0  0  0  0  0  0  0  0
   -9.6417    6.7757   -1.8860 C   0  0  0  0  0  0  0  0  0  0  0  0
   -8.3987    7.0428   -1.3155 C   0  0  0  0  0  0  0  0  0  0  0  0
   -8.2574    8.1508   -0.5750 F   0  0  0  0  0  0  0  0  0  0  0  0
   -4.0059    5.5665   -0.2719 C   0  0  0  0  0  0  0  0  0  0  0  0
    1.0341    1.2838    1.9594 C   0  0  0  0  0  0  0  0  0  0  0  0
    1.2998    3.4727    4.5479 H   0  0  0  0  0  0  0  0  0  0  0  0
   -0.0564    3.5338    3.3909 H   0  0  0  0  0  0  0  0  0  0  0  0
    1.6282    3.9230    2.8608 H   0  0  0  0  0  0  0  0  0  0  0  0
    1.8799    1.2430    5.1176 H   0  0  0  0  0  0  0  0  0  0  0  0
    1.6155   -2.0515    1.5097 H   0  0  0  0  0  0  0  0  0  0  0  0
    0.8842   -1.4422   -0.7920 H   0  0  0  0  0  0  0  0  0  0  0  0
    0.2718    0.8683   -1.3255 H   0  0  0  0  0  0  0  0  0  0  0  0
    0.5850    3.2280   -0.8287 H   0  0  0  0  0  0  0  0  0  0  0  0
    0.7240    3.8535    0.8038 H   0  0  0  0  0  0  0  0  0  0  0  0
   -1.7256    2.4932   -0.2079 H   0  0  0  0  0  0  0  0  0  0  0  0
   -3.4848    2.4971    1.1368 H   0  0  0  0  0  0  0  0  0  0  0  0
   -5.9550    2.5106    0.9633 H   0  0  0  0  0  0  0  0  0  0  0  0
   -6.6626    4.3646   -2.4960 H   0  0  0  0  0  0  0  0  0  0  0  0
   -8.8820    3.8695   -3.4758 H   0  0  0  0  0  0  0  0  0  0  0  0
  -10.4797    7.4474   -1.7307 H   0  0  0  0  0  0  0  0  0  0  0  0
   -3.4993    6.4570   -0.6240 H   0  0  0  0  0  0  0  0  0  0  0  0
  1  2  1  0  0  0  0
  1 30  1  0  0  0  0
  1 31  1  0  0  0  0
  1 32  1  0  0  0  0
  2  3  1  0  0  0  0
  2 29  1  0  0  0  0
  3  4  2  0  0  0  0
  3 33  1  0  0  0  0
  4  5  1  0  0  0  0
  5  6  2  0  0  0  0
  5 29  1  0  0  0  0
  6  7  1  0  0  0  0
  6 34  1  0  0  0  0
  7  8  2  0  0  0  0
  7 35  1  0  0  0  0
  8  9  1  0  0  0  0
  8 36  1  0  0  0  0
  9 10  1  0  0  0  0
  9 29  2  0  0  0  0
 10 11  1  0  0  0  0
 10 37  1  0  0  0  0
 10 38  1  0  0  0  0
 11 12  1  0  0  0  0
 11 39  1  0  0  0  0
 12 13  2  0  0  0  0
 12 14  1  0  0  0  0
 14 15  2  0  0  0  0
 14 28  1  0  0  0  0
 15 16  1  0  0  0  0
 15 40  1  0  0  0  0
 16 17  2  0  0  0  0
 16 41  1  0  0  0  0
 17 18  1  0  0  0  0
 18 19  1  0  0  0  0
 18 28  2  0  0  0  0
 19 20  1  0  0  0  0
 20 21  2  0  0  0  0
 20 26  1  0  0  0  0
 21 22  1  0  0  0  0
 21 42  1  0  0  0  0
 22 23  2  0  0  0  0
 22 43  1  0  0  0  0
 23 24  1  0  0  0  0
 23 25  1  0  0  0  0
 25 26  2  0  0  0  0
 25 44  1  0  0  0  0
 26 27  1  0  0  0  0
 28 45  1  0  0  0  0
M  END
$$$$
