
 OpenBabel01122422523D

 46 49  0  0  0  0  0  0  0  0999 V2000
    3.2930    1.4537   -0.6909 C   0  0  0  0  0  0  0  0  0  0  0  0
    2.5970    0.1803   -0.3062 C   0  0  0  0  0  0  0  0  0  0  0  0
    1.2377    0.2170    0.0406 C   0  0  0  0  0  0  0  0  0  0  0  0
    0.5800    1.3860    0.0441 F   0  0  0  0  0  0  0  0  0  0  0  0
    0.5356   -0.9322    0.3947 C   0  0  0  0  0  0  0  0  0  0  0  0
    1.1853   -2.1611    0.3965 C   0  0  0  0  0  0  0  0  0  0  0  0
    2.5417   -2.2206    0.0583 C   0  0  0  0  0  0  0  0  0  0  0  0
    3.2637   -1.0592   -0.2906 C   0  0  0  0  0  0  0  0  0  0  0  0
    4.6373   -1.1734   -0.5543 N   0  0  0  0  0  0  0  0  0  0  0  0
    5.2846   -2.3806   -0.4756 C   0  0  0  0  0  0  0  0  0  0  0  0
    4.7031   -3.5570   -0.1900 C   0  0  0  0  0  0  0  0  0  0  0  0
    5.5400   -4.7907   -0.1608 C   0  0  0  0  0  0  0  0  0  0  0  0
    6.7636   -4.7341   -0.0923 O   0  0  0  0  0  0  0  0  0  0  0  0
    4.8459   -5.9726   -0.2320 N   0  0  0  0  0  0  0  0  0  0  0  0
    5.4960   -7.2566   -0.1039 C   0  0  0  0  0  0  0  0  0  0  0  0
    4.8169   -8.3127   -0.9277 C   0  0  0  0  0  0  0  0  0  0  0  0
    4.3255   -9.4732   -0.3463 C   0  0  0  0  0  0  0  0  0  0  0  0
    3.7388  -10.4720   -1.0383 N   0  0  0  0  0  0  0  0  0  0  0  0
    3.6335  -10.3049   -2.3793 C   0  0  0  0  0  0  0  0  0  0  0  0
    4.0915   -9.1952   -3.0937 C   0  0  0  0  0  0  0  0  0  0  0  0
    3.9310   -9.0853   -4.5572 C   0  0  0  0  0  0  0  0  0  0  0  0
    3.9799  -10.2026   -5.4051 C   0  0  0  0  0  0  0  0  0  0  0  0
    3.7825  -10.0668   -6.7800 C   0  0  0  0  0  0  0  0  0  0  0  0
    3.5515   -8.8024   -7.2882 C   0  0  0  0  0  0  0  0  0  0  0  0
    3.5105   -7.6924   -6.5260 N   0  0  0  0  0  0  0  0  0  0  0  0
    3.6964   -7.8621   -5.1922 C   0  0  0  0  0  0  0  0  0  0  0  0
    4.6987   -8.1912   -2.3215 C   0  0  0  0  0  0  0  0  0  0  0  0
    3.2379   -3.5362    0.0613 C   0  0  0  0  0  0  0  0  0  0  0  0
    2.6102   -4.5722    0.2650 O   0  0  0  0  0  0  0  0  0  0  0  0
    2.6283    2.3212   -0.6229 H   0  0  0  0  0  0  0  0  0  0  0  0
    3.6455    1.3921   -1.7258 H   0  0  0  0  0  0  0  0  0  0  0  0
    4.1425    1.6406   -0.0268 H   0  0  0  0  0  0  0  0  0  0  0  0
   -0.5134   -0.8593    0.6655 H   0  0  0  0  0  0  0  0  0  0  0  0
    0.6417   -3.0633    0.6681 H   0  0  0  0  0  0  0  0  0  0  0  0
    5.1580   -0.3677   -0.8820 H   0  0  0  0  0  0  0  0  0  0  0  0
    6.3520   -2.3120   -0.6791 H   0  0  0  0  0  0  0  0  0  0  0  0
    3.8298   -5.9349   -0.1415 H   0  0  0  0  0  0  0  0  0  0  0  0
    5.4715   -7.5145    0.9611 H   0  0  0  0  0  0  0  0  0  0  0  0
    6.5487   -7.1865   -0.3987 H   0  0  0  0  0  0  0  0  0  0  0  0
    4.3920   -9.6468    0.7246 H   0  0  0  0  0  0  0  0  0  0  0  0
    3.1333  -11.1312   -2.8791 H   0  0  0  0  0  0  0  0  0  0  0  0
    4.1794  -11.1966   -5.0105 H   0  0  0  0  0  0  0  0  0  0  0  0
    3.8080  -10.9300   -7.4360 H   0  0  0  0  0  0  0  0  0  0  0  0
    3.3875   -8.6445   -8.3502 H   0  0  0  0  0  0  0  0  0  0  0  0
    3.6296   -6.9359   -4.6265 H   0  0  0  0  0  0  0  0  0  0  0  0
    5.1048   -7.3002   -2.7980 H   0  0  0  0  0  0  0  0  0  0  0  0
  1  2  1  0  0  0  0
  1 30  1  0  0  0  0
  1 31  1  0  0  0  0
  1 32  1  0  0  0  0
  2  3  2  0  0  0  0
  2  8  1  0  0  0  0
  3  4  1  0  0  0  0
  3  5  1  0  0  0  0
  5  6  2  0  0  0  0
  5 33  1  0  0  0  0
  6  7  1  0  0  0  0
  6 34  1  0  0  0  0
  7  8  2  0  0  0  0
  7 28  1  0  0  0  0
  8  9  1  0  0  0  0
  9 10  1  0  0  0  0
  9 35  1  0  0  0  0
 10 11  2  0  0  0  0
 10 36  1  0  0  0  0
 11 12  1  0  0  0  0
 11 28  1  0  0  0  0
 12 13  2  0  0  0  0
 12 14  1  0  0  0  0
 14 15  1  0  0  0  0
 14 37  1  0  0  0  0
 15 16  1  0  0  0  0
 15 38  1  0  0  0  0
 15 39  1  0  0  0  0
 16 17  2  0  0  0  0
 16 27  1  0  0  0  0
 17 18  1  0  0  0  0
 17 40  1  0  0  0  0
 18 19  2  0  0  0  0
 19 20  1  0  0  0  0
 19 41  1  0  0  0  0
 20 21  1  0  0  0  0
 20 27  2  0  0  0  0
 21 22  2  0  0  0  0
 21 26  1  0  0  0  0
 22 23  1  0  0  0  0
 22 42  1  0  0  0  0
 23 24  2  0  0  0  0
 23 43  1  0  0  0  0
 24 25  1  0  0  0  0
 24 44  1  0  0  0  0
 25 26  2  0  0  0  0
 26 45  1  0  0  0  0
 27 46  1  0  0  0  0
 28 29  2  0  0  0  0
M  END
$$$$
