
 OpenBabel01122422523D

 48 51  0  0  0  0  0  0  0  0999 V2000
    6.9510   -0.6967   -2.9116 C   0  0  0  0  0  0  0  0  0  0  0  0
    6.3121   -1.9261   -3.2520 O   0  0  0  0  0  0  0  0  0  0  0  0
    6.0037   -2.0448   -4.5726 C   0  0  0  0  0  0  0  0  0  0  0  0
    6.2927   -1.2135   -5.4261 O   0  0  0  0  0  0  0  0  0  0  0  0
    5.4029   -3.3232   -4.8971 C   0  0  0  0  0  0  0  0  0  0  0  0
    5.5705   -3.9886   -6.0964 C   0  0  0  0  0  0  0  0  0  0  0  0
    4.9051   -5.1675   -5.9787 N   0  0  0  0  0  0  0  0  0  0  0  0
    4.3134   -5.3351   -4.7824 N   0  0  0  0  0  0  0  0  0  0  0  0
    4.5606   -4.1782   -4.1254 C   0  0  0  0  0  0  0  0  0  0  0  0
    3.9817   -3.9140   -2.7946 C   0  0  0  0  0  0  0  0  0  0  0  0
    3.8541   -2.7844   -2.3324 O   0  0  0  0  0  0  0  0  0  0  0  0
    3.5915   -5.0513   -2.1225 N   0  0  0  0  0  0  0  0  0  0  0  0
    3.0248   -5.0057   -0.8013 C   0  0  0  0  0  0  0  0  0  0  0  0
    1.5218   -5.0348   -0.8272 C   0  0  0  0  0  0  0  0  0  0  0  0
    0.8451   -6.2506   -0.8140 C   0  0  0  0  0  0  0  0  0  0  0  0
   -0.5468   -6.2607   -0.7785 C   0  0  0  0  0  0  0  0  0  0  0  0
   -1.3229   -5.0755   -0.7082 C   0  0  0  0  0  0  0  0  0  0  0  0
   -2.7897   -5.1913   -0.4820 C   0  0  0  0  0  0  0  0  0  0  0  0
   -3.2132   -6.2981    0.2845 C   0  0  0  0  0  0  0  0  0  0  0  0
   -4.5377   -6.6807    0.3241 C   0  0  0  0  0  0  0  0  0  0  0  0
   -5.4854   -5.8953   -0.2702 C   0  0  0  0  0  0  0  0  0  0  0  0
   -6.7884   -6.3643   -0.2991 C   0  0  0  0  0  0  0  0  0  0  0  0
   -7.7342   -5.4456    0.1066 C   0  0  0  0  0  0  0  0  0  0  0  0
   -7.5216   -4.1123   -0.2318 C   0  0  0  0  0  0  0  0  0  0  0  0
   -6.2900   -3.7138   -0.7740 C   0  0  0  0  0  0  0  0  0  0  0  0
   -5.1787   -4.5848   -0.7099 C   0  0  0  0  0  0  0  0  0  0  0  0
   -3.7995   -4.3060   -0.9282 C   0  0  0  0  0  0  0  0  0  0  0  0
   -0.6329   -3.8645   -0.7911 C   0  0  0  0  0  0  0  0  0  0  0  0
    0.7716   -3.8483   -0.8595 C   0  0  0  0  0  0  0  0  0  0  0  0
    7.1722   -0.7122   -1.8408 H   0  0  0  0  0  0  0  0  0  0  0  0
    6.2877    0.1490   -3.1174 H   0  0  0  0  0  0  0  0  0  0  0  0
    7.8953   -0.5899   -3.4556 H   0  0  0  0  0  0  0  0  0  0  0  0
    6.1207   -3.7267   -6.9898 H   0  0  0  0  0  0  0  0  0  0  0  0
    4.8239   -5.9087   -6.6669 H   0  0  0  0  0  0  0  0  0  0  0  0
    3.5888   -5.9135   -2.6572 H   0  0  0  0  0  0  0  0  0  0  0  0
    3.3706   -4.1129   -0.2676 H   0  0  0  0  0  0  0  0  0  0  0  0
    3.4084   -5.8701   -0.2452 H   0  0  0  0  0  0  0  0  0  0  0  0
    1.3829   -7.1964   -0.8003 H   0  0  0  0  0  0  0  0  0  0  0  0
   -1.0323   -7.2368   -0.7692 H   0  0  0  0  0  0  0  0  0  0  0  0
   -2.5019   -6.8965    0.8405 H   0  0  0  0  0  0  0  0  0  0  0  0
   -4.8199   -7.5864    0.8614 H   0  0  0  0  0  0  0  0  0  0  0  0
   -7.0187   -6.6887   -1.3339 H   0  0  0  0  0  0  0  0  0  0  0  0
   -8.5689   -5.7925    0.7015 H   0  0  0  0  0  0  0  0  0  0  0  0
   -8.3051   -3.3981   -0.0040 H   0  0  0  0  0  0  0  0  0  0  0  0
   -6.1618   -2.6701   -1.0665 H   0  0  0  0  0  0  0  0  0  0  0  0
   -3.5213   -3.3668   -1.4210 H   0  0  0  0  0  0  0  0  0  0  0  0
   -1.1645   -2.9184   -0.7620 H   0  0  0  0  0  0  0  0  0  0  0  0
    1.2886   -2.8900   -0.9086 H   0  0  0  0  0  0  0  0  0  0  0  0
  1  2  1  0  0  0  0
  1 30  1  0  0  0  0
  1 31  1  0  0  0  0
  1 32  1  0  0  0  0
  2  3  1  0  0  0  0
  3  4  2  0  0  0  0
  3  5  1  0  0  0  0
  5  6  2  0  0  0  0
  5  9  1  0  0  0  0
  6  7  1  0  0  0  0
  6 33  1  0  0  0  0
  7  8  1  0  0  0  0
  7 34  1  0  0  0  0
  8  9  2  0  0  0  0
  9 10  1  0  0  0  0
 10 11  2  0  0  0  0
 10 12  1  0  0  0  0
 12 13  1  0  0  0  0
 12 35  1  0  0  0  0
 13 14  1  0  0  0  0
 13 36  1  0  0  0  0
 13 37  1  0  0  0  0
 14 15  2  0  0  0  0
 14 29  1  0  0  0  0
 15 16  1  0  0  0  0
 15 38  1  0  0  0  0
 16 17  2  0  0  0  0
 16 39  1  0  0  0  0
 17 18  1  0  0  0  0
 17 28  1  0  0  0  0
 18 19  2  0  0  0  0
 18 27  1  0  0  0  0
 19 20  1  0  0  0  0
 19 40  1  0  0  0  0
 20 21  2  0  0  0  0
 20 41  1  0  0  0  0
 21 22  1  0  0  0  0
 21 26  1  0  0  0  0
 22 23  2  0  0  0  0
 22 42  1  0  0  0  0
 23 24  1  0  0  0  0
 23 43  1  0  0  0  0
 24 25  2  0  0  0  0
 24 44  1  0  0  0  0
 25 26  1  0  0  0  0
 25 45  1  0  0  0  0
 26 27  2  0  0  0  0
 27 46  1  0  0  0  0
 28 29  2  0  0  0  0
 28 47  1  0  0  0  0
 29 48  1  0  0  0  0
M  END
$$$$
