
 OpenBabel01122422523D

 46 49  0  0  1  0  0  0  0  0999 V2000
    3.1015    0.2466    1.1267 O   0  0  0  0  0  0  0  0  0  0  0  0
    2.5300    0.2295    0.0496 C   0  0  0  0  0  0  0  0  0  0  0  0
    3.0789   -0.0678   -1.1514 O   0  0  0  0  0  0  0  0  0  0  0  0
    4.4981   -0.3576   -1.1697 C   0  0  3  0  0  0  0  0  0  0  0  0
    4.7444   -1.6973   -1.8659 C   0  0  0  0  0  0  0  0  0  0  0  0
    3.8789   -2.1863   -2.8576 C   0  0  0  0  0  0  0  0  0  0  0  0
    4.1780   -3.3670   -3.5319 C   0  0  0  0  0  0  0  0  0  0  0  0
    3.3543   -3.7973   -4.4969 F   0  0  0  0  0  0  0  0  0  0  0  0
    5.3223   -4.0947   -3.2343 C   0  0  0  0  0  0  0  0  0  0  0  0
    6.1838   -3.6357   -2.2407 C   0  0  0  0  0  0  0  0  0  0  0  0
    5.9006   -2.4432   -1.5655 C   0  0  0  0  0  0  0  0  0  0  0  0
    5.2185    0.7954   -1.8709 C   0  0  0  0  0  0  0  0  0  0  0  0
    4.8804    1.1639   -3.1763 C   0  0  0  0  0  0  0  0  0  0  0  0
    5.5427    2.2304   -3.7780 C   0  0  0  0  0  0  0  0  0  0  0  0
    6.5224    2.9095   -3.0683 C   0  0  0  0  0  0  0  0  0  0  0  0
    6.8086    2.4840   -1.7829 C   0  0  0  0  0  0  0  0  0  0  0  0
    6.1856    1.4496   -1.1737 N   0  0  0  0  0  0  0  0  0  0  0  0
    1.0689    0.5010   -0.0889 C   0  0  0  0  0  0  0  0  0  0  0  0
    0.4362    0.5712   -1.3387 C   0  0  0  0  0  0  0  0  0  0  0  0
   -0.9456    0.7595   -1.4190 C   0  0  0  0  0  0  0  0  0  0  0  0
   -1.7053    0.8633   -0.2538 C   0  0  0  0  0  0  0  0  0  0  0  0
   -1.0850    0.8078    1.0004 C   0  0  0  0  0  0  0  0  0  0  0  0
   -1.9471    0.8077    2.2145 C   0  0  0  0  0  0  0  0  0  0  0  0
   -3.0549    0.1281    2.1918 N   0  0  0  0  0  0  0  0  0  0  0  0
   -3.8061    0.1271    3.3323 N   0  0  0  0  0  0  0  0  0  0  0  0
   -3.4962    0.7811    4.4963 C   0  0  0  0  0  0  0  0  0  0  0  0
   -4.1941    0.7335    5.5039 O   0  0  0  0  0  0  0  0  0  0  0  0
   -2.2510    1.5711    4.4743 C   0  0  0  0  0  0  0  0  0  0  0  0
   -1.4835    1.5966    3.3809 C   0  0  0  0  0  0  0  0  0  0  0  0
    0.3044    0.6439    1.0830 C   0  0  0  0  0  0  0  0  0  0  0  0
    4.8885   -0.4431   -0.1476 H   0  0  0  0  0  0  0  0  0  0  0  0
    2.9753   -1.6513   -3.1315 H   0  0  0  0  0  0  0  0  0  0  0  0
    5.5371   -5.0078   -3.7803 H   0  0  0  0  0  0  0  0  0  0  0  0
    7.0824   -4.1988   -1.9992 H   0  0  0  0  0  0  0  0  0  0  0  0
    6.5982   -2.0901   -0.8059 H   0  0  0  0  0  0  0  0  0  0  0  0
    4.1113    0.6309   -3.7250 H   0  0  0  0  0  0  0  0  0  0  0  0
    5.2916    2.5287   -4.7922 H   0  0  0  0  0  0  0  0  0  0  0  0
    7.0506    3.7494   -3.5059 H   0  0  0  0  0  0  0  0  0  0  0  0
    7.5690    2.9822   -1.1877 H   0  0  0  0  0  0  0  0  0  0  0  0
    1.0017    0.4626   -2.2609 H   0  0  0  0  0  0  0  0  0  0  0  0
   -1.4366    0.7972   -2.3891 H   0  0  0  0  0  0  0  0  0  0  0  0
   -2.7866    0.9710   -0.3259 H   0  0  0  0  0  0  0  0  0  0  0  0
   -4.6500   -0.4366    3.3192 H   0  0  0  0  0  0  0  0  0  0  0  0
   -2.0134    2.1171    5.3770 H   0  0  0  0  0  0  0  0  0  0  0  0
   -0.5776    2.1853    3.3314 H   0  0  0  0  0  0  0  0  0  0  0  0
    0.7939    0.5684    2.0516 H   0  0  0  0  0  0  0  0  0  0  0  0
  1  2  2  0  0  0  0
  2  3  1  0  0  0  0
  2 18  1  0  0  0  0
  3  4  1  0  0  0  0
  4  5  1  0  0  0  0
  4 12  1  0  0  0  0
  4 31  1  0  0  0  0
  5  6  2  0  0  0  0
  5 11  1  0  0  0  0
  6  7  1  0  0  0  0
  6 32  1  0  0  0  0
  7  8  1  0  0  0  0
  7  9  2  0  0  0  0
  9 10  1  0  0  0  0
  9 33  1  0  0  0  0
 10 11  2  0  0  0  0
 10 34  1  0  0  0  0
 11 35  1  0  0  0  0
 12 13  2  0  0  0  0
 12 17  1  0  0  0  0
 13 14  1  0  0  0  0
 13 36  1  0  0  0  0
 14 15  2  0  0  0  0
 14 37  1  0  0  0  0
 15 16  1  0  0  0  0
 15 38  1  0  0  0  0
 16 17  2  0  0  0  0
 16 39  1  0  0  0  0
 18 19  2  0  0  0  0
 18 30  1  0  0  0  0
 19 20  1  0  0  0  0
 19 40  1  0  0  0  0
 20 21  2  0  0  0  0
 20 41  1  0  0  0  0
 21 22  1  0  0  0  0
 21 42  1  0  0  0  0
 22 23  1  0  0  0  0
 22 30  2  0  0  0  0
 23 24  2  0  0  0  0
 23 29  1  0  0  0  0
 24 25  1  0  0  0  0
 25 26  1  0  0  0  0
 25 43  1  0  0  0  0
 26 27  2  0  0  0  0
 26 28  1  0  0  0  0
 28 29  2  0  0  0  0
 28 44  1  0  0  0  0
 29 45  1  0  0  0  0
 30 46  1  0  0  0  0
M  END
$$$$
