
 OpenBabel01122422523D

 53 56  0  0  0  0  0  0  0  0999 V2000
    1.0409    0.1285    0.3557 C   0  0  0  0  0  0  0  0  0  0  0  0
    2.4817    0.3589    0.3596 N   0  0  0  0  0  0  0  0  0  0  0  0
    3.0560    1.4752   -0.4133 C   0  0  0  0  0  0  0  0  0  0  0  0
    2.0978    2.3912   -1.1699 C   0  0  0  0  0  0  0  0  0  0  0  0
    2.8508    3.4259   -1.8090 O   0  0  0  0  0  0  0  0  0  0  0  0
    2.0934    4.3335   -2.4999 C   0  0  0  0  0  0  0  0  0  0  0  0
    0.7770    4.6805   -2.1833 C   0  0  0  0  0  0  0  0  0  0  0  0
    0.0798    5.6011   -2.9657 C   0  0  0  0  0  0  0  0  0  0  0  0
    0.7013    6.1920   -4.0614 C   0  0  0  0  0  0  0  0  0  0  0  0
    2.0302    5.8709   -4.3616 C   0  0  0  0  0  0  0  0  0  0  0  0
    2.6742    6.4833   -5.4866 C   0  0  0  0  0  0  0  0  0  0  0  0
    3.1905    6.9877   -6.3917 N   0  0  0  0  0  0  0  0  0  0  0  0
    2.7281    4.9531   -3.5741 C   0  0  0  0  0  0  0  0  0  0  0  0
    3.2341   -0.6720    0.9517 C   0  0  0  0  0  0  0  0  0  0  0  0
    2.6975   -1.6862    1.4015 O   0  0  0  0  0  0  0  0  0  0  0  0
    4.7211   -0.6162    1.0347 C   0  0  0  0  0  0  0  0  0  0  0  0
    5.4286    0.5627    1.2857 C   0  0  0  0  0  0  0  0  0  0  0  0
    6.8216    0.5629    1.3018 C   0  0  0  0  0  0  0  0  0  0  0  0
    7.5144   -0.6386    1.1566 C   0  0  0  0  0  0  0  0  0  0  0  0
    8.9844   -0.6588    1.1913 C   0  0  0  0  0  0  0  0  0  0  0  0
    9.5582    0.4193    1.3401 O   0  0  0  0  0  0  0  0  0  0  0  0
    9.6005   -1.9118    1.0995 N   0  0  0  0  0  0  0  0  0  0  0  0
   11.0289   -1.9430    1.1278 C   0  0  0  0  0  0  0  0  0  0  0  0
   11.7099   -2.7636    2.0350 C   0  0  0  0  0  0  0  0  0  0  0  0
   13.1044   -2.7338    2.1012 C   0  0  0  0  0  0  0  0  0  0  0  0
   13.8293   -1.9135    1.2376 C   0  0  0  0  0  0  0  0  0  0  0  0
   13.1629   -1.1119    0.3142 C   0  0  0  0  0  0  0  0  0  0  0  0
   11.7686   -1.1147    0.2701 C   0  0  0  0  0  0  0  0  0  0  0  0
    8.8981   -3.1171    1.0242 C   0  0  0  0  0  0  0  0  0  0  0  0
    9.3986   -4.2407    0.9609 O   0  0  0  0  0  0  0  0  0  0  0  0
    7.5297   -3.0276    0.9701 N   0  0  0  0  0  0  0  0  0  0  0  0
    6.8227   -1.8318    1.0174 C   0  0  0  0  0  0  0  0  0  0  0  0
    5.4290   -1.8285    0.9417 C   0  0  0  0  0  0  0  0  0  0  0  0
    0.4689    0.9790   -0.0145 H   0  0  0  0  0  0  0  0  0  0  0  0
    0.7113   -0.0714    1.3803 H   0  0  0  0  0  0  0  0  0  0  0  0
    0.8207   -0.7476   -0.2634 H   0  0  0  0  0  0  0  0  0  0  0  0
    3.8298    1.0861   -1.0862 H   0  0  0  0  0  0  0  0  0  0  0  0
    3.5565    2.1318    0.3002 H   0  0  0  0  0  0  0  0  0  0  0  0
    1.4220    2.8327   -0.4297 H   0  0  0  0  0  0  0  0  0  0  0  0
    1.5363    1.8256   -1.9215 H   0  0  0  0  0  0  0  0  0  0  0  0
    0.2622    4.2650   -1.3246 H   0  0  0  0  0  0  0  0  0  0  0  0
   -0.9475    5.8547   -2.7161 H   0  0  0  0  0  0  0  0  0  0  0  0
    0.1477    6.9004   -4.6737 H   0  0  0  0  0  0  0  0  0  0  0  0
    3.7630    4.7039   -3.8059 H   0  0  0  0  0  0  0  0  0  0  0  0
    4.9261    1.4958    1.5058 H   0  0  0  0  0  0  0  0  0  0  0  0
    7.3596    1.4972    1.4532 H   0  0  0  0  0  0  0  0  0  0  0  0
   11.1631   -3.3969    2.7292 H   0  0  0  0  0  0  0  0  0  0  0  0
   13.6239   -3.3454    2.8338 H   0  0  0  0  0  0  0  0  0  0  0  0
   14.9147   -1.8957    1.2871 H   0  0  0  0  0  0  0  0  0  0  0  0
   13.7242   -0.4780   -0.3665 H   0  0  0  0  0  0  0  0  0  0  0  0
   11.2654   -0.4763   -0.4524 H   0  0  0  0  0  0  0  0  0  0  0  0
    7.0450   -3.9142    0.8925 H   0  0  0  0  0  0  0  0  0  0  0  0
    4.8806   -2.7620    0.8255 H   0  0  0  0  0  0  0  0  0  0  0  0
  1  2  1  0  0  0  0
  1 34  1  0  0  0  0
  1 35  1  0  0  0  0
  1 36  1  0  0  0  0
  2  3  1  0  0  0  0
  2 14  1  0  0  0  0
  3  4  1  0  0  0  0
  3 37  1  0  0  0  0
  3 38  1  0  0  0  0
  4  5  1  0  0  0  0
  4 39  1  0  0  0  0
  4 40  1  0  0  0  0
  5  6  1  0  0  0  0
  6  7  2  0  0  0  0
  6 13  1  0  0  0  0
  7  8  1  0  0  0  0
  7 41  1  0  0  0  0
  8  9  2  0  0  0  0
  8 42  1  0  0  0  0
  9 10  1  0  0  0  0
  9 43  1  0  0  0  0
 10 11  1  0  0  0  0
 10 13  2  0  0  0  0
 11 12  3  0  0  0  0
 13 44  1  0  0  0  0
 14 15  2  0  0  0  0
 14 16  1  0  0  0  0
 16 17  2  0  0  0  0
 16 33  1  0  0  0  0
 17 18  1  0  0  0  0
 17 45  1  0  0  0  0
 18 19  2  0  0  0  0
 18 46  1  0  0  0  0
 19 20  1  0  0  0  0
 19 32  1  0  0  0  0
 20 21  2  0  0  0  0
 20 22  1  0  0  0  0
 22 23  1  0  0  0  0
 22 29  1  0  0  0  0
 23 24  2  0  0  0  0
 23 28  1  0  0  0  0
 24 25  1  0  0  0  0
 24 47  1  0  0  0  0
 25 26  2  0  0  0  0
 25 48  1  0  0  0  0
 26 27  1  0  0  0  0
 26 49  1  0  0  0  0
 27 28  2  0  0  0  0
 27 50  1  0  0  0  0
 28 51  1  0  0  0  0
 29 30  2  0  0  0  0
 29 31  1  0  0  0  0
 31 32  1  0  0  0  0
 31 52  1  0  0  0  0
 32 33  2  0  0  0  0
 33 53  1  0  0  0  0
M  END
$$$$
