
 OpenBabel01122422523D

 44 47  0  0  0  0  0  0  0  0999 V2000
    1.0637   -0.0041   -0.2380 O   0  0  0  0  0  0  0  0  0  0  0  0
    2.2583    0.2758   -0.1605 C   0  0  0  0  0  0  0  0  0  0  0  0
    2.8055    1.1228    0.7846 N   0  0  0  0  0  0  0  0  0  0  0  0
    2.0884    1.7781    1.8194 C   0  0  0  0  0  0  0  0  0  0  0  0
    0.7030    1.6958    1.9800 C   0  0  0  0  0  0  0  0  0  0  0  0
    0.0577    2.3217    3.0519 C   0  0  0  0  0  0  0  0  0  0  0  0
    0.7788    3.0622    3.9914 C   0  0  0  0  0  0  0  0  0  0  0  0
    0.0841    3.7393    5.0931 C   0  0  0  0  0  0  0  0  0  0  0  0
   -1.0378    3.3193    5.6990 C   0  0  0  0  0  0  0  0  0  0  0  0
   -1.4070    4.4171    6.6113 C   0  0  0  0  0  0  0  0  0  0  0  0
   -2.3279    4.3927    7.4055 O   0  0  0  0  0  0  0  0  0  0  0  0
   -0.5135    5.4475    6.3782 N   0  0  0  0  0  0  0  0  0  0  0  0
    0.5136    4.9766    5.5584 N   0  0  0  0  0  0  0  0  0  0  0  0
    2.1639    3.1784    3.8135 C   0  0  0  0  0  0  0  0  0  0  0  0
    2.8114    2.5429    2.7401 C   0  0  0  0  0  0  0  0  0  0  0  0
    3.1613   -0.3514   -1.1756 C   0  0  0  0  0  0  0  0  0  0  0  0
    2.4827   -1.1521   -2.1247 C   0  0  0  0  0  0  0  0  0  0  0  0
    3.1928   -1.7869   -3.1252 C   0  0  0  0  0  0  0  0  0  0  0  0
    4.5168   -1.6466   -3.2806 N   0  0  0  0  0  0  0  0  0  0  0  0
    5.1518   -0.8632   -2.3788 C   0  0  0  0  0  0  0  0  0  0  0  0
    4.5522   -0.2441   -1.2726 C   0  0  0  0  0  0  0  0  0  0  0  0
    5.3095    0.4316   -0.3294 O   0  0  0  0  0  0  0  0  0  0  0  0
    6.5865   -0.0552   -0.0761 C   0  0  0  0  0  0  0  0  0  0  0  0
    7.6349    0.8531    0.0743 C   0  0  0  0  0  0  0  0  0  0  0  0
    8.9493    0.3871    0.2273 C   0  0  0  0  0  0  0  0  0  0  0  0
    9.1995   -0.9827    0.2201 C   0  0  0  0  0  0  0  0  0  0  0  0
   10.4581   -1.4293    0.3173 F   0  0  0  0  0  0  0  0  0  0  0  0
    8.1608   -1.8955    0.1098 C   0  0  0  0  0  0  0  0  0  0  0  0
    6.8500   -1.4321    0.0055 C   0  0  0  0  0  0  0  0  0  0  0  0
    3.8094    1.2576    0.7711 H   0  0  0  0  0  0  0  0  0  0  0  0
    0.0674    1.1525    1.2885 H   0  0  0  0  0  0  0  0  0  0  0  0
   -1.0236    2.2241    3.1227 H   0  0  0  0  0  0  0  0  0  0  0  0
   -1.6194    2.4265    5.5668 H   0  0  0  0  0  0  0  0  0  0  0  0
   -0.3608    6.1820    7.0583 H   0  0  0  0  0  0  0  0  0  0  0  0
    0.7618    5.5988    4.7877 H   0  0  0  0  0  0  0  0  0  0  0  0
    2.7592    3.7536    4.5201 H   0  0  0  0  0  0  0  0  0  0  0  0
    3.8882    2.6535    2.6450 H   0  0  0  0  0  0  0  0  0  0  0  0
    1.4074   -1.2907   -2.0869 H   0  0  0  0  0  0  0  0  0  0  0  0
    2.6942   -2.4337   -3.8413 H   0  0  0  0  0  0  0  0  0  0  0  0
    6.2197   -0.7840   -2.5664 H   0  0  0  0  0  0  0  0  0  0  0  0
    7.4579    1.9296    0.0458 H   0  0  0  0  0  0  0  0  0  0  0  0
    9.7844    1.0736    0.3316 H   0  0  0  0  0  0  0  0  0  0  0  0
    8.3723   -2.9597    0.0869 H   0  0  0  0  0  0  0  0  0  0  0  0
    6.0467   -2.1597   -0.0765 H   0  0  0  0  0  0  0  0  0  0  0  0
  1  2  2  0  0  0  0
  2  3  1  0  0  0  0
  2 16  1  0  0  0  0
  3  4  1  0  0  0  0
  3 30  1  0  0  0  0
  4  5  2  0  0  0  0
  4 15  1  0  0  0  0
  5  6  1  0  0  0  0
  5 31  1  0  0  0  0
  6  7  2  0  0  0  0
  6 32  1  0  0  0  0
  7  8  1  0  0  0  0
  7 14  1  0  0  0  0
  8  9  2  0  0  0  0
  8 13  1  0  0  0  0
  9 10  1  0  0  0  0
  9 33  1  0  0  0  0
 10 11  2  0  0  0  0
 10 12  1  0  0  0  0
 12 13  1  0  0  0  0
 12 34  1  0  0  0  0
 13 35  1  0  0  0  0
 14 15  2  0  0  0  0
 14 36  1  0  0  0  0
 15 37  1  0  0  0  0
 16 17  2  0  0  0  0
 16 21  1  0  0  0  0
 17 18  1  0  0  0  0
 17 38  1  0  0  0  0
 18 19  2  0  0  0  0
 18 39  1  0  0  0  0
 19 20  1  0  0  0  0
 20 21  2  0  0  0  0
 20 40  1  0  0  0  0
 21 22  1  0  0  0  0
 22 23  1  0  0  0  0
 23 24  2  0  0  0  0
 23 29  1  0  0  0  0
 24 25  1  0  0  0  0
 24 41  1  0  0  0  0
 25 26  2  0  0  0  0
 25 42  1  0  0  0  0
 26 27  1  0  0  0  0
 26 28  1  0  0  0  0
 28 29  2  0  0  0  0
 28 43  1  0  0  0  0
 29 44  1  0  0  0  0
M  END
$$$$
