
 OpenBabel01122422523D

 57 59  0  0  0  0  0  0  0  0999 V2000
    2.3861    0.6184   -1.5093 N   0  0  0  0  0  0  0  0  0  0  0  0
    2.1260   -0.2266   -0.4711 C   0  0  0  0  0  0  0  0  0  0  0  0
    1.0810   -0.0824    0.1524 O   0  0  0  0  0  0  0  0  0  0  0  0
    3.1142   -1.3757   -0.2107 C   0  0  0  0  0  0  0  0  0  0  0  0
    4.5500   -0.9903   -0.0603 N   0  0  0  0  0  0  0  0  0  0  0  0
    4.9262   -0.3110    1.2155 C   0  0  0  0  0  0  0  0  0  0  0  0
    4.6420   -1.1239    2.5100 C   0  0  0  0  0  0  0  0  0  0  0  0
    5.3968   -2.0113    2.9105 O   0  0  0  0  0  0  0  0  0  0  0  0
    3.5190   -0.8227    3.2311 N   0  0  0  0  0  0  0  0  0  0  0  0
    2.3971   -0.1003    2.7034 C   0  0  0  0  0  0  0  0  0  0  0  0
    1.8952    1.0162    3.5635 C   0  0  0  0  0  0  0  0  0  0  0  0
    2.6793    2.1918    3.5805 C   0  0  0  0  0  0  0  0  0  0  0  0
    2.2231    3.3506    4.1922 C   0  0  0  0  0  0  0  0  0  0  0  0
    0.9760    3.3497    4.8057 C   0  0  0  0  0  0  0  0  0  0  0  0
    0.2007    2.1912    4.8086 C   0  0  0  0  0  0  0  0  0  0  0  0
    0.6384    1.0023    4.1922 C   0  0  0  0  0  0  0  0  0  0  0  0
   -0.3056   -0.1844    4.2307 C   0  0  0  0  0  0  0  0  0  0  0  0
    0.1532   -1.3355    3.6711 F   0  0  0  0  0  0  0  0  0  0  0  0
   -0.6264   -0.5284    5.5115 F   0  0  0  0  0  0  0  0  0  0  0  0
   -1.4918    0.0788    3.6136 F   0  0  0  0  0  0  0  0  0  0  0  0
    5.4048   -2.1949   -0.1610 C   0  0  0  0  0  0  0  0  0  0  0  0
    5.3345   -2.8984   -1.4894 C   0  0  0  0  0  0  0  0  0  0  0  0
    5.6545   -2.2422   -2.6813 C   0  0  0  0  0  0  0  0  0  0  0  0
    5.6119   -2.9265   -3.8917 C   0  0  0  0  0  0  0  0  0  0  0  0
    5.2701   -4.2923   -3.9575 C   0  0  0  0  0  0  0  0  0  0  0  0
    5.2563   -5.0355   -5.2355 C   0  0  0  0  0  0  0  0  0  0  0  0
    6.1536   -4.7284   -6.2753 C   0  0  0  0  0  0  0  0  0  0  0  0
    6.1447   -5.4388   -7.4791 C   0  0  0  0  0  0  0  0  0  0  0  0
    5.2488   -6.4863   -7.6674 C   0  0  0  0  0  0  0  0  0  0  0  0
    4.3553   -6.8175   -6.6526 C   0  0  0  0  0  0  0  0  0  0  0  0
    4.3554   -6.0949   -5.4580 C   0  0  0  0  0  0  0  0  0  0  0  0
    4.9492   -4.9307   -2.7456 C   0  0  0  0  0  0  0  0  0  0  0  0
    4.9728   -4.2472   -1.5355 C   0  0  0  0  0  0  0  0  0  0  0  0
    1.6700    1.2978   -1.7425 H   0  0  0  0  0  0  0  0  0  0  0  0
    3.1424    0.4418   -2.1597 H   0  0  0  0  0  0  0  0  0  0  0  0
    2.9847   -2.0087   -1.0925 H   0  0  0  0  0  0  0  0  0  0  0  0
    2.7648   -1.9653    0.6452 H   0  0  0  0  0  0  0  0  0  0  0  0
    4.5295    0.7000    1.2684 H   0  0  0  0  0  0  0  0  0  0  0  0
    6.0169   -0.1408    1.2208 H   0  0  0  0  0  0  0  0  0  0  0  0
    3.3526   -1.4543    4.0100 H   0  0  0  0  0  0  0  0  0  0  0  0
    1.6470   -0.8312    2.4146 H   0  0  0  0  0  0  0  0  0  0  0  0
    2.6871    0.3950    1.7859 H   0  0  0  0  0  0  0  0  0  0  0  0
    3.6381    2.2180    3.0649 H   0  0  0  0  0  0  0  0  0  0  0  0
    2.8275    4.2544    4.1671 H   0  0  0  0  0  0  0  0  0  0  0  0
    0.6054    4.2578    5.2724 H   0  0  0  0  0  0  0  0  0  0  0  0
   -0.7808    2.2190    5.2820 H   0  0  0  0  0  0  0  0  0  0  0  0
    5.1521   -2.9146    0.6301 H   0  0  0  0  0  0  0  0  0  0  0  0
    6.4592   -1.9270   -0.0149 H   0  0  0  0  0  0  0  0  0  0  0  0
    5.9387   -1.1877   -2.6614 H   0  0  0  0  0  0  0  0  0  0  0  0
    5.8533   -2.3763   -4.7998 H   0  0  0  0  0  0  0  0  0  0  0  0
    6.8883   -3.9364   -6.1548 H   0  0  0  0  0  0  0  0  0  0  0  0
    6.8461   -5.1752   -8.2667 H   0  0  0  0  0  0  0  0  0  0  0  0
    5.2466   -7.0428   -8.5975 H   0  0  0  0  0  0  0  0  0  0  0  0
    3.6549   -7.6367   -6.7893 H   0  0  0  0  0  0  0  0  0  0  0  0
    3.6285   -6.3707   -4.6977 H   0  0  0  0  0  0  0  0  0  0  0  0
    4.6944   -5.9891   -2.7240 H   0  0  0  0  0  0  0  0  0  0  0  0
    4.7160   -4.7814   -0.6196 H   0  0  0  0  0  0  0  0  0  0  0  0
  1  2  1  0  0  0  0
  1 34  1  0  0  0  0
  1 35  1  0  0  0  0
  2  3  2  0  0  0  0
  2  4  1  0  0  0  0
  4  5  1  0  0  0  0
  4 36  1  0  0  0  0
  4 37  1  0  0  0  0
  5  6  1  0  0  0  0
  5 21  1  0  0  0  0
  6  7  1  0  0  0  0
  6 38  1  0  0  0  0
  6 39  1  0  0  0  0
  7  8  2  0  0  0  0
  7  9  1  0  0  0  0
  9 10  1  0  0  0  0
  9 40  1  0  0  0  0
 10 11  1  0  0  0  0
 10 41  1  0  0  0  0
 10 42  1  0  0  0  0
 11 12  2  0  0  0  0
 11 16  1  0  0  0  0
 12 13  1  0  0  0  0
 12 43  1  0  0  0  0
 13 14  2  0  0  0  0
 13 44  1  0  0  0  0
 14 15  1  0  0  0  0
 14 45  1  0  0  0  0
 15 16  2  0  0  0  0
 15 46  1  0  0  0  0
 16 17  1  0  0  0  0
 17 18  1  0  0  0  0
 17 19  1  0  0  0  0
 17 20  1  0  0  0  0
 21 22  1  0  0  0  0
 21 47  1  0  0  0  0
 21 48  1  0  0  0  0
 22 23  2  0  0  0  0
 22 33  1  0  0  0  0
 23 24  1  0  0  0  0
 23 49  1  0  0  0  0
 24 25  2  0  0  0  0
 24 50  1  0  0  0  0
 25 26  1  0  0  0  0
 25 32  1  0  0  0  0
 26 27  2  0  0  0  0
 26 31  1  0  0  0  0
 27 28  1  0  0  0  0
 27 51  1  0  0  0  0
 28 29  2  0  0  0  0
 28 52  1  0  0  0  0
 29 30  1  0  0  0  0
 29 53  1  0  0  0  0
 30 31  2  0  0  0  0
 30 54  1  0  0  0  0
 31 55  1  0  0  0  0
 32 33  2  0  0  0  0
 32 56  1  0  0  0  0
 33 57  1  0  0  0  0
M  END
$$$$
