
 OpenBabel01122422523D

 47 50  0  0  1  0  0  0  0  0999 V2000
    1.6239    1.1423   -0.3422 N   0  0  0  0  0  0  0  0  0  0  0  0
    2.4213    0.0821    0.0031 C   0  0  0  0  0  0  0  0  0  0  0  0
    2.5602   -0.2096    1.1890 O   0  0  0  0  0  0  0  0  0  0  0  0
    3.1593   -0.6442   -1.1569 C   0  0  3  0  0  0  0  0  0  0  0  0
    2.7559   -0.1396   -2.4679 N   0  0  0  0  0  0  0  0  0  0  0  0
    1.6965   -0.6518   -3.1700 C   0  0  0  0  0  0  0  0  0  0  0  0
    1.0062   -1.5726   -2.7580 O   0  0  0  0  0  0  0  0  0  0  0  0
    1.4439    0.0127   -4.4385 C   0  0  0  0  0  0  0  0  0  0  0  0
    2.0215    1.1268   -5.0204 C   0  0  0  0  0  0  0  0  0  0  0  0
    1.3920    1.3466   -6.2662 C   0  0  0  0  0  0  0  0  0  0  0  0
    0.4256    0.3724   -6.4466 C   0  0  0  0  0  0  0  0  0  0  0  0
   -0.4870    0.1249   -7.5775 C   0  0  0  0  0  0  0  0  0  0  0  0
   -0.4379    0.9398   -8.7212 C   0  0  0  0  0  0  0  0  0  0  0  0
   -1.2662    0.6940   -9.8224 C   0  0  0  0  0  0  0  0  0  0  0  0
   -2.1650   -0.3692   -9.7988 C   0  0  0  0  0  0  0  0  0  0  0  0
   -2.2416   -1.1800   -8.6697 C   0  0  0  0  0  0  0  0  0  0  0  0
   -1.4123   -0.9300   -7.5759 C   0  0  0  0  0  0  0  0  0  0  0  0
   -1.5189   -1.7418   -6.5108 F   0  0  0  0  0  0  0  0  0  0  0  0
    0.4697   -0.4192   -5.3151 N   0  0  0  0  0  0  0  0  0  0  0  0
    4.6718   -0.5346   -1.0199 C   0  0  0  0  0  0  0  0  0  0  0  0
    5.3203    0.7092   -0.9874 C   0  0  0  0  0  0  0  0  0  0  0  0
    6.7140    0.7849   -0.8933 C   0  0  0  0  0  0  0  0  0  0  0  0
    7.4956   -0.3775   -0.8267 C   0  0  0  0  0  0  0  0  0  0  0  0
    8.8969   -0.3198   -0.7245 C   0  0  0  0  0  0  0  0  0  0  0  0
    9.6579   -1.4883   -0.6592 C   0  0  0  0  0  0  0  0  0  0  0  0
    9.0296   -2.7290   -0.6962 C   0  0  0  0  0  0  0  0  0  0  0  0
    7.6385   -2.8034   -0.7957 C   0  0  0  0  0  0  0  0  0  0  0  0
    6.8578   -1.6374   -0.8602 C   0  0  0  0  0  0  0  0  0  0  0  0
    5.4554   -1.6992   -0.9564 C   0  0  0  0  0  0  0  0  0  0  0  0
    1.0744    1.5709    0.3910 H   0  0  0  0  0  0  0  0  0  0  0  0
    1.3815    1.3221   -1.3067 H   0  0  0  0  0  0  0  0  0  0  0  0
    2.8503   -1.6948   -1.0883 H   0  0  0  0  0  0  0  0  0  0  0  0
    3.3404    0.5697   -2.8887 H   0  0  0  0  0  0  0  0  0  0  0  0
    2.8191    1.7311   -4.6112 H   0  0  0  0  0  0  0  0  0  0  0  0
    1.6320    2.1416   -6.9584 H   0  0  0  0  0  0  0  0  0  0  0  0
    0.2540    1.7760   -8.7798 H   0  0  0  0  0  0  0  0  0  0  0  0
   -1.2008    1.3324  -10.7006 H   0  0  0  0  0  0  0  0  0  0  0  0
   -2.8012   -0.5653  -10.6578 H   0  0  0  0  0  0  0  0  0  0  0  0
   -2.9373   -2.0124   -8.6331 H   0  0  0  0  0  0  0  0  0  0  0  0
   -0.1218   -1.2243   -5.1476 H   0  0  0  0  0  0  0  0  0  0  0  0
    4.7489    1.6347   -1.0275 H   0  0  0  0  0  0  0  0  0  0  0  0
    7.1876    1.7639   -0.8672 H   0  0  0  0  0  0  0  0  0  0  0  0
    9.4068    0.6403   -0.6918 H   0  0  0  0  0  0  0  0  0  0  0  0
   10.7403   -1.4290   -0.5771 H   0  0  0  0  0  0  0  0  0  0  0  0
    9.6195   -3.6404   -0.6453 H   0  0  0  0  0  0  0  0  0  0  0  0
    7.1669   -3.7828   -0.8202 H   0  0  0  0  0  0  0  0  0  0  0  0
    4.9669   -2.6721   -0.9786 H   0  0  0  0  0  0  0  0  0  0  0  0
  1  2  1  0  0  0  0
  1 30  1  0  0  0  0
  1 31  1  0  0  0  0
  2  3  2  0  0  0  0
  2  4  1  0  0  0  0
  4  5  1  0  0  0  0
  4 20  1  0  0  0  0
  4 32  1  0  0  0  0
  5  6  1  0  0  0  0
  5 33  1  0  0  0  0
  6  7  2  0  0  0  0
  6  8  1  0  0  0  0
  8  9  2  0  0  0  0
  8 19  1  0  0  0  0
  9 10  1  0  0  0  0
  9 34  1  0  0  0  0
 10 11  2  0  0  0  0
 10 35  1  0  0  0  0
 11 12  1  0  0  0  0
 11 19  1  0  0  0  0
 12 13  2  0  0  0  0
 12 17  1  0  0  0  0
 13 14  1  0  0  0  0
 13 36  1  0  0  0  0
 14 15  2  0  0  0  0
 14 37  1  0  0  0  0
 15 16  1  0  0  0  0
 15 38  1  0  0  0  0
 16 17  2  0  0  0  0
 16 39  1  0  0  0  0
 17 18  1  0  0  0  0
 19 40  1  0  0  0  0
 20 21  2  0  0  0  0
 20 29  1  0  0  0  0
 21 22  1  0  0  0  0
 21 41  1  0  0  0  0
 22 23  2  0  0  0  0
 22 42  1  0  0  0  0
 23 24  1  0  0  0  0
 23 28  1  0  0  0  0
 24 25  2  0  0  0  0
 24 43  1  0  0  0  0
 25 26  1  0  0  0  0
 25 44  1  0  0  0  0
 26 27  2  0  0  0  0
 26 45  1  0  0  0  0
 27 28  1  0  0  0  0
 27 46  1  0  0  0  0
 28 29  2  0  0  0  0
 29 47  1  0  0  0  0
M  END
$$$$
