
 OpenBabel01122422523D

 45 48  0  0  0  0  0  0  0  0999 V2000
    2.9492   -0.1666    3.0609 N   0  0  0  0  0  0  0  0  0  0  0  0
    3.2245    0.0175    1.9472 C   0  0  0  0  0  0  0  0  0  0  0  0
    3.6604    0.2918    0.6288 C   0  0  0  0  0  0  0  0  0  0  0  0
    4.3198    1.4220    0.3061 C   0  0  0  0  0  0  0  0  0  0  0  0
    4.7341    1.7125   -1.0643 C   0  0  0  0  0  0  0  0  0  0  0  0
    5.4018    3.0166   -1.4574 C   0  0  0  0  0  0  0  0  0  0  0  0
    5.2724    3.4478   -2.6040 O   0  0  0  0  0  0  0  0  0  0  0  0
    6.0644    3.7007   -0.4508 N   0  0  0  0  0  0  0  0  0  0  0  0
    6.6139    5.0015   -0.6393 C   0  0  0  0  0  0  0  0  0  0  0  0
    7.5096    5.1842   -1.7014 C   0  0  0  0  0  0  0  0  0  0  0  0
    8.1978    6.3844   -1.8445 C   0  0  0  0  0  0  0  0  0  0  0  0
    7.9603    7.4269   -0.9566 C   0  0  0  0  0  0  0  0  0  0  0  0
    7.0272    7.2752    0.0755 C   0  0  0  0  0  0  0  0  0  0  0  0
    6.3376    6.0622    0.2765 C   0  0  0  0  0  0  0  0  0  0  0  0
    5.3047    5.9491    1.3475 C   0  0  0  0  0  0  0  0  0  0  0  0
    4.1650    5.1564    1.1207 C   0  0  0  0  0  0  0  0  0  0  0  0
    3.3076    4.7940    2.1446 C   0  0  0  0  0  0  0  0  0  0  0  0
    3.4277    5.4224    3.3676 C   0  0  0  0  0  0  0  0  0  0  0  0
    2.4905    5.1345    4.3419 C   0  0  0  0  0  0  0  0  0  0  0  0
    1.9620    6.2301    4.9936 C   0  0  0  0  0  0  0  0  0  0  0  0
    2.7737    7.3418    5.1814 C   0  0  0  0  0  0  0  0  0  0  0  0
    4.0338    7.3997    4.5663 C   0  0  0  0  0  0  0  0  0  0  0  0
    4.3268    6.4856    3.5356 C   0  0  0  0  0  0  0  0  0  0  0  0
    5.3550    6.6430    2.5766 C   0  0  0  0  0  0  0  0  0  0  0  0
    4.4370    0.8184   -2.0464 C   0  0  0  0  0  0  0  0  0  0  0  0
    4.7347    0.9653   -3.3820 N   0  0  0  0  0  0  0  0  0  0  0  0
    3.7736   -0.3339   -1.7015 N   0  0  0  0  0  0  0  0  0  0  0  0
    3.3518   -0.6855   -0.4474 C   0  0  0  0  0  0  0  0  0  0  0  0
    2.7525   -1.7392   -0.2428 O   0  0  0  0  0  0  0  0  0  0  0  0
    4.5257    2.1317    1.0989 H   0  0  0  0  0  0  0  0  0  0  0  0
    5.8915    3.4519    0.5116 H   0  0  0  0  0  0  0  0  0  0  0  0
    7.7144    4.3722   -2.3951 H   0  0  0  0  0  0  0  0  0  0  0  0
    8.9250    6.4981   -2.6441 H   0  0  0  0  0  0  0  0  0  0  0  0
    8.4933    8.3675   -1.0735 H   0  0  0  0  0  0  0  0  0  0  0  0
    6.8323    8.1378    0.7092 H   0  0  0  0  0  0  0  0  0  0  0  0
    3.9319    4.7953    0.1224 H   0  0  0  0  0  0  0  0  0  0  0  0
    2.4834    4.1129    1.9500 H   0  0  0  0  0  0  0  0  0  0  0  0
    2.8928    4.4004    5.0771 H   0  0  0  0  0  0  0  0  0  0  0  0
    0.9224    6.2058    5.3050 H   0  0  0  0  0  0  0  0  0  0  0  0
    2.3945    8.1814    5.7551 H   0  0  0  0  0  0  0  0  0  0  0  0
    4.6632    8.2665    4.7430 H   0  0  0  0  0  0  0  0  0  0  0  0
    6.1368    7.3752    2.7658 H   0  0  0  0  0  0  0  0  0  0  0  0
    4.9585    1.9458   -3.6081 H   0  0  0  0  0  0  0  0  0  0  0  0
    3.9928    0.6368   -3.9929 H   0  0  0  0  0  0  0  0  0  0  0  0
    3.5947   -1.0144   -2.4263 H   0  0  0  0  0  0  0  0  0  0  0  0
  1  2  3  0  0  0  0
  2  3  1  0  0  0  0
  3  4  2  0  0  0  0
  3 28  1  0  0  0  0
  4  5  1  0  0  0  0
  4 30  1  0  0  0  0
  5  6  1  0  0  0  0
  5 25  2  0  0  0  0
  6  7  2  0  0  0  0
  6  8  1  0  0  0  0
  8  9  1  0  0  0  0
  8 31  1  0  0  0  0
  9 10  2  0  0  0  0
  9 14  1  0  0  0  0
 10 11  1  0  0  0  0
 10 32  1  0  0  0  0
 11 12  2  0  0  0  0
 11 33  1  0  0  0  0
 12 13  1  0  0  0  0
 12 34  1  0  0  0  0
 13 14  2  0  0  0  0
 13 35  1  0  0  0  0
 14 15  1  0  0  0  0
 15 16  2  0  0  0  0
 15 24  1  0  0  0  0
 16 17  1  0  0  0  0
 16 36  1  0  0  0  0
 17 18  2  0  0  0  0
 17 37  1  0  0  0  0
 18 19  1  0  0  0  0
 18 23  1  0  0  0  0
 19 20  2  0  0  0  0
 19 38  1  0  0  0  0
 20 21  1  0  0  0  0
 20 39  1  0  0  0  0
 21 22  2  0  0  0  0
 21 40  1  0  0  0  0
 22 23  1  0  0  0  0
 22 41  1  0  0  0  0
 23 24  2  0  0  0  0
 24 42  1  0  0  0  0
 25 26  1  0  0  0  0
 25 27  1  0  0  0  0
 26 43  1  0  0  0  0
 26 44  1  0  0  0  0
 27 28  1  0  0  0  0
 27 45  1  0  0  0  0
 28 29  2  0  0  0  0
M  END
$$$$
