
 OpenBabel01122422523D

 46 49  0  0  0  0  0  0  0  0999 V2000
    1.7534   -1.0014   -0.9903 C   0  0  0  0  0  0  0  0  0  0  0  0
    2.7371   -0.4279   -0.1275 O   0  0  0  0  0  0  0  0  0  0  0  0
    4.0026   -0.4485   -0.6186 C   0  0  0  0  0  0  0  0  0  0  0  0
    4.3407   -0.9094   -1.6985 O   0  0  0  0  0  0  0  0  0  0  0  0
    4.9422    0.1803    0.3569 C   0  0  0  0  0  0  0  0  0  0  0  0
    6.2416    0.3042    0.0152 C   0  0  0  0  0  0  0  0  0  0  0  0
    7.1321    0.8814    0.9178 N   0  0  0  0  0  0  0  0  0  0  0  0
    8.4736    1.1074    0.7890 C   0  0  0  0  0  0  0  0  0  0  0  0
    8.8812    1.6886    1.9768 C   0  0  0  0  0  0  0  0  0  0  0  0
   10.2524    2.0971    2.2918 C   0  0  0  0  0  0  0  0  0  0  0  0
   11.1463    1.9640    1.4622 O   0  0  0  0  0  0  0  0  0  0  0  0
   10.4064    2.5774    3.5855 N   0  0  0  0  0  0  0  0  0  0  0  0
   11.6189    3.0252    4.1603 C   0  0  0  0  0  0  0  0  0  0  0  0
   12.7285    3.3597    3.3809 C   0  0  0  0  0  0  0  0  0  0  0  0
   13.9297    3.7391    3.9769 C   0  0  0  0  0  0  0  0  0  0  0  0
   15.0646    4.0552    3.1636 C   0  0  0  0  0  0  0  0  0  0  0  0
   15.9952    4.3116    2.5163 N   0  0  0  0  0  0  0  0  0  0  0  0
   14.0333    3.7830    5.3676 C   0  0  0  0  0  0  0  0  0  0  0  0
   12.9438    3.4515    6.1926 C   0  0  0  0  0  0  0  0  0  0  0  0
   13.1187    3.3878    7.6650 C   0  0  0  0  0  0  0  0  0  0  0  0
   12.1094    3.7815    8.5588 C   0  0  0  0  0  0  0  0  0  0  0  0
   12.2783    3.6574    9.9445 C   0  0  0  0  0  0  0  0  0  0  0  0
   13.4640    3.1511   10.4671 C   0  0  0  0  0  0  0  0  0  0  0  0
   14.4899    2.7771    9.6079 C   0  0  0  0  0  0  0  0  0  0  0  0
   14.3151    2.8924    8.2260 C   0  0  0  0  0  0  0  0  0  0  0  0
   11.7240    3.1122    5.5597 C   0  0  0  0  0  0  0  0  0  0  0  0
    7.8055    1.8264    2.8398 N   0  0  0  0  0  0  0  0  0  0  0  0
    6.7703    1.3455    2.1795 C   0  0  0  0  0  0  0  0  0  0  0  0
    5.4005    1.2232    2.5383 C   0  0  0  0  0  0  0  0  0  0  0  0
    4.5255    0.6686    1.6746 C   0  0  0  0  0  0  0  0  0  0  0  0
    0.7700   -0.8137   -0.5492 H   0  0  0  0  0  0  0  0  0  0  0  0
    1.9002   -2.0831   -1.0636 H   0  0  0  0  0  0  0  0  0  0  0  0
    1.7805   -0.5356   -1.9801 H   0  0  0  0  0  0  0  0  0  0  0  0
    6.6466   -0.0260   -0.9357 H   0  0  0  0  0  0  0  0  0  0  0  0
    9.0272    0.8447   -0.1024 H   0  0  0  0  0  0  0  0  0  0  0  0
    9.5849    2.4806    4.1761 H   0  0  0  0  0  0  0  0  0  0  0  0
   12.6820    3.3424    2.2957 H   0  0  0  0  0  0  0  0  0  0  0  0
   14.9870    4.0695    5.8102 H   0  0  0  0  0  0  0  0  0  0  0  0
   11.1744    4.1951    8.1888 H   0  0  0  0  0  0  0  0  0  0  0  0
   11.4770    3.9556   10.6167 H   0  0  0  0  0  0  0  0  0  0  0  0
   13.5906    3.0453   11.5420 H   0  0  0  0  0  0  0  0  0  0  0  0
   15.4224    2.3845   10.0055 H   0  0  0  0  0  0  0  0  0  0  0  0
   15.1325    2.5637    7.5866 H   0  0  0  0  0  0  0  0  0  0  0  0
   10.8657    2.8443    6.1734 H   0  0  0  0  0  0  0  0  0  0  0  0
    5.0837    1.5831    3.5114 H   0  0  0  0  0  0  0  0  0  0  0  0
    3.4809    0.5750    1.9554 H   0  0  0  0  0  0  0  0  0  0  0  0
  1  2  1  0  0  0  0
  1 31  1  0  0  0  0
  1 32  1  0  0  0  0
  1 33  1  0  0  0  0
  2  3  1  0  0  0  0
  3  4  2  0  0  0  0
  3  5  1  0  0  0  0
  5  6  2  0  0  0  0
  5 30  1  0  0  0  0
  6  7  1  0  0  0  0
  6 34  1  0  0  0  0
  7  8  1  0  0  0  0
  7 28  1  0  0  0  0
  8  9  2  0  0  0  0
  8 35  1  0  0  0  0
  9 10  1  0  0  0  0
  9 27  1  0  0  0  0
 10 11  2  0  0  0  0
 10 12  1  0  0  0  0
 12 13  1  0  0  0  0
 12 36  1  0  0  0  0
 13 14  2  0  0  0  0
 13 26  1  0  0  0  0
 14 15  1  0  0  0  0
 14 37  1  0  0  0  0
 15 16  1  0  0  0  0
 15 18  2  0  0  0  0
 16 17  3  0  0  0  0
 18 19  1  0  0  0  0
 18 38  1  0  0  0  0
 19 20  1  0  0  0  0
 19 26  2  0  0  0  0
 20 21  2  0  0  0  0
 20 25  1  0  0  0  0
 21 22  1  0  0  0  0
 21 39  1  0  0  0  0
 22 23  2  0  0  0  0
 22 40  1  0  0  0  0
 23 24  1  0  0  0  0
 23 41  1  0  0  0  0
 24 25  2  0  0  0  0
 24 42  1  0  0  0  0
 25 43  1  0  0  0  0
 26 44  1  0  0  0  0
 27 28  2  0  0  0  0
 28 29  1  0  0  0  0
 29 30  2  0  0  0  0
 29 45  1  0  0  0  0
 30 46  1  0  0  0  0
M  END
$$$$
