
 OpenBabel01122422523D

 53 56  0  0  1  0  0  0  0  0999 V2000
    6.2320   -5.0055    4.2464 C   0  0  0  0  0  0  0  0  0  0  0  0
    6.5333   -3.7677    3.6100 O   0  0  0  0  0  0  0  0  0  0  0  0
    7.5874   -3.8225    2.7487 C   0  0  0  0  0  0  0  0  0  0  0  0
    8.2383   -4.8222    2.4951 O   0  0  0  0  0  0  0  0  0  0  0  0
    7.7902   -2.4659    2.1418 C   0  0  0  0  0  0  0  0  0  0  0  0
    7.4642   -1.4331    2.9720 N   0  0  0  0  0  0  0  0  0  0  0  0
    7.6123   -0.1958    2.4962 C   0  0  0  0  0  0  0  0  0  0  0  0
    8.0660    0.0701    1.2208 C   0  0  0  0  0  0  0  0  0  0  0  0
    8.4227   -0.9830    0.3404 C   0  0  0  0  0  0  0  0  0  0  0  0
    8.9091   -0.7860   -0.9871 C   0  0  0  0  0  0  0  0  0  0  0  0
    9.1264    0.8787   -1.5686 S   0  0  0  0  0  0  0  0  0  0  0  0
    7.8034    1.4011   -1.8149 O   0  0  0  0  0  0  0  0  0  0  0  0
   10.0241    1.5139   -0.6316 O   0  0  0  0  0  0  0  0  0  0  0  0
    9.8419    0.7989   -3.0946 N   0  0  0  0  0  0  0  0  0  0  0  0
   11.3132    0.8245   -3.2047 C   0  0  3  0  0  0  0  0  0  0  0  0
   11.7166    0.7239   -4.6795 C   0  0  0  0  0  0  0  0  0  0  0  0
   11.9615    2.0578   -2.6218 C   0  0  0  0  0  0  0  0  0  0  0  0
   13.2097    1.9403   -2.0032 C   0  0  0  0  0  0  0  0  0  0  0  0
   13.8004    3.0442   -1.3896 C   0  0  0  0  0  0  0  0  0  0  0  0
   13.1561    4.2928   -1.3530 C   0  0  0  0  0  0  0  0  0  0  0  0
   13.7592    5.4515   -0.6735 C   0  0  0  0  0  0  0  0  0  0  0  0
   13.5498    6.7671   -1.1149 C   0  0  0  0  0  0  0  0  0  0  0  0
   14.1259    7.8423   -0.4437 C   0  0  0  0  0  0  0  0  0  0  0  0
   14.9186    7.5777    0.6570 C   0  0  0  0  0  0  0  0  0  0  0  0
   15.1591    6.3378    1.1252 N   0  0  0  0  0  0  0  0  0  0  0  0
   14.5693    5.3152    0.4575 C   0  0  0  0  0  0  0  0  0  0  0  0
   11.9041    4.3952   -1.9807 C   0  0  0  0  0  0  0  0  0  0  0  0
   11.3266    3.3070   -2.6312 C   0  0  0  0  0  0  0  0  0  0  0  0
    9.2523   -1.8505   -1.8222 C   0  0  0  0  0  0  0  0  0  0  0  0
    9.1087   -3.1464   -1.3568 C   0  0  0  0  0  0  0  0  0  0  0  0
    8.6265   -3.3706   -0.0649 C   0  0  0  0  0  0  0  0  0  0  0  0
    8.2820   -2.3110    0.8147 C   0  0  0  0  0  0  0  0  0  0  0  0
    5.4200   -4.8312    4.9576 H   0  0  0  0  0  0  0  0  0  0  0  0
    7.1008   -5.3797    4.7977 H   0  0  0  0  0  0  0  0  0  0  0  0
    5.8960   -5.7373    3.5067 H   0  0  0  0  0  0  0  0  0  0  0  0
    7.3515    0.6115    3.1761 H   0  0  0  0  0  0  0  0  0  0  0  0
    8.1378    1.1162    0.9394 H   0  0  0  0  0  0  0  0  0  0  0  0
    9.3326    1.3977   -3.7415 H   0  0  0  0  0  0  0  0  0  0  0  0
   11.6908   -0.0674   -2.6882 H   0  0  0  0  0  0  0  0  0  0  0  0
   11.2554    1.5165   -5.2809 H   0  0  0  0  0  0  0  0  0  0  0  0
   11.4157   -0.2373   -5.1070 H   0  0  0  0  0  0  0  0  0  0  0  0
   12.8036    0.8155   -4.7978 H   0  0  0  0  0  0  0  0  0  0  0  0
   13.7208    0.9799   -1.9693 H   0  0  0  0  0  0  0  0  0  0  0  0
   14.7745    2.9026   -0.9271 H   0  0  0  0  0  0  0  0  0  0  0  0
   12.9408    6.9690   -1.9919 H   0  0  0  0  0  0  0  0  0  0  0  0
   13.9589    8.8593   -0.7779 H   0  0  0  0  0  0  0  0  0  0  0  0
   15.3951    8.3818    1.2105 H   0  0  0  0  0  0  0  0  0  0  0  0
   14.7716    4.3391    0.8913 H   0  0  0  0  0  0  0  0  0  0  0  0
   11.3332    5.3202   -1.9388 H   0  0  0  0  0  0  0  0  0  0  0  0
   10.3400    3.4335   -3.0702 H   0  0  0  0  0  0  0  0  0  0  0  0
    9.6286   -1.6913   -2.8300 H   0  0  0  0  0  0  0  0  0  0  0  0
    9.3723   -3.9920   -1.9896 H   0  0  0  0  0  0  0  0  0  0  0  0
    8.5281   -4.4099    0.2465 H   0  0  0  0  0  0  0  0  0  0  0  0
  1  2  1  0  0  0  0
  1 33  1  0  0  0  0
  1 34  1  0  0  0  0
  1 35  1  0  0  0  0
  2  3  1  0  0  0  0
  3  4  2  0  0  0  0
  3  5  1  0  0  0  0
  5  6  2  0  0  0  0
  5 32  1  0  0  0  0
  6  7  1  0  0  0  0
  7  8  2  0  0  0  0
  7 36  1  0  0  0  0
  8  9  1  0  0  0  0
  8 37  1  0  0  0  0
  9 10  2  0  0  0  0
  9 32  1  0  0  0  0
 10 11  1  0  0  0  0
 10 29  1  0  0  0  0
 11 12  2  0  0  0  0
 11 13  2  0  0  0  0
 11 14  1  0  0  0  0
 14 15  1  0  0  0  0
 14 38  1  0  0  0  0
 15 16  1  0  0  0  0
 15 17  1  0  0  0  0
 15 39  1  0  0  0  0
 16 40  1  0  0  0  0
 16 41  1  0  0  0  0
 16 42  1  0  0  0  0
 17 18  2  0  0  0  0
 17 28  1  0  0  0  0
 18 19  1  0  0  0  0
 18 43  1  0  0  0  0
 19 20  2  0  0  0  0
 19 44  1  0  0  0  0
 20 21  1  0  0  0  0
 20 27  1  0  0  0  0
 21 22  2  0  0  0  0
 21 26  1  0  0  0  0
 22 23  1  0  0  0  0
 22 45  1  0  0  0  0
 23 24  2  0  0  0  0
 23 46  1  0  0  0  0
 24 25  1  0  0  0  0
 24 47  1  0  0  0  0
 25 26  2  0  0  0  0
 26 48  1  0  0  0  0
 27 28  2  0  0  0  0
 27 49  1  0  0  0  0
 28 50  1  0  0  0  0
 29 30  2  0  0  0  0
 29 51  1  0  0  0  0
 30 31  1  0  0  0  0
 30 52  1  0  0  0  0
 31 32  2  0  0  0  0
 31 53  1  0  0  0  0
M  END
$$$$
