
 OpenBabel01122422523D

 39 42  0  0  0  0  0  0  0  0999 V2000
    1.2415   -2.0530   -1.1919 C   0  0  0  0  0  0  0  0  0  0  0  0
    2.6712   -2.0277   -1.2166 O   0  0  0  0  0  0  0  0  0  0  0  0
    3.1966   -0.9069   -0.6658 C   0  0  0  0  0  0  0  0  0  0  0  0
    2.5800    0.0456   -0.2259 O   0  0  0  0  0  0  0  0  0  0  0  0
    4.6765   -0.9698   -0.6890 C   0  0  0  0  0  0  0  0  0  0  0  0
    5.3688   -2.1826   -0.6290 C   0  0  0  0  0  0  0  0  0  0  0  0
    6.7644   -2.1774   -0.6568 C   0  0  0  0  0  0  0  0  0  0  0  0
    7.3995   -3.3589   -0.6156 F   0  0  0  0  0  0  0  0  0  0  0  0
    7.4873   -0.9853   -0.7399 C   0  0  0  0  0  0  0  0  0  0  0  0
    8.9305   -0.9805   -0.7715 C   0  0  0  0  0  0  0  0  0  0  0  0
    9.6520   -0.0427   -1.3939 N   0  0  0  0  0  0  0  0  0  0  0  0
   10.9613   -0.4038   -1.1387 O   0  0  0  0  0  0  0  0  0  0  0  0
   10.9403   -1.5425   -0.3612 C   0  0  0  0  0  0  0  0  0  0  0  0
   12.1318   -2.1594    0.1330 C   0  0  0  0  0  0  0  0  0  0  0  0
   13.1682   -1.3382    0.4067 C   0  0  0  0  0  0  0  0  0  0  0  0
   14.4426   -1.8349    0.9643 C   0  0  0  0  0  0  0  0  0  0  0  0
   15.3720   -1.0626    1.1882 O   0  0  0  0  0  0  0  0  0  0  0  0
   14.5317   -3.1717    1.2152 N   0  0  0  0  0  0  0  0  0  0  0  0
   13.5146   -4.0823    0.9054 C   0  0  0  0  0  0  0  0  0  0  0  0
   13.7340   -5.4450    1.0989 C   0  0  0  0  0  0  0  0  0  0  0  0
   12.7570   -6.3480    0.6976 C   0  0  0  0  0  0  0  0  0  0  0  0
   12.9795   -7.6616    0.8292 F   0  0  0  0  0  0  0  0  0  0  0  0
   11.5625   -5.9136    0.1392 C   0  0  0  0  0  0  0  0  0  0  0  0
   11.3307   -4.5471   -0.0162 C   0  0  0  0  0  0  0  0  0  0  0  0
   12.3095   -3.6121    0.3591 C   0  0  0  0  0  0  0  0  0  0  0  0
    9.6941   -1.9346   -0.1497 N   0  0  0  0  0  0  0  0  0  0  0  0
    6.7748    0.2146   -0.7862 C   0  0  0  0  0  0  0  0  0  0  0  0
    7.4150    1.3907   -0.8536 F   0  0  0  0  0  0  0  0  0  0  0  0
    5.3842    0.2326   -0.7563 C   0  0  0  0  0  0  0  0  0  0  0  0
    0.9113   -3.0524   -1.4876 H   0  0  0  0  0  0  0  0  0  0  0  0
    0.8416   -1.3261   -1.9050 H   0  0  0  0  0  0  0  0  0  0  0  0
    0.8631   -1.8529   -0.1841 H   0  0  0  0  0  0  0  0  0  0  0  0
    4.8424   -3.1310   -0.5649 H   0  0  0  0  0  0  0  0  0  0  0  0
   13.1297   -0.2656    0.2525 H   0  0  0  0  0  0  0  0  0  0  0  0
   15.4145   -3.4931    1.5898 H   0  0  0  0  0  0  0  0  0  0  0  0
   14.6568   -5.8223    1.5253 H   0  0  0  0  0  0  0  0  0  0  0  0
   10.8212   -6.6370   -0.1856 H   0  0  0  0  0  0  0  0  0  0  0  0
   10.3863   -4.2353   -0.4530 H   0  0  0  0  0  0  0  0  0  0  0  0
    4.8650    1.1876   -0.8041 H   0  0  0  0  0  0  0  0  0  0  0  0
  1  2  1  0  0  0  0
  1 30  1  0  0  0  0
  1 31  1  0  0  0  0
  1 32  1  0  0  0  0
  2  3  1  0  0  0  0
  3  4  2  0  0  0  0
  3  5  1  0  0  0  0
  5  6  2  0  0  0  0
  5 29  1  0  0  0  0
  6  7  1  0  0  0  0
  6 33  1  0  0  0  0
  7  8  1  0  0  0  0
  7  9  2  0  0  0  0
  9 10  1  0  0  0  0
  9 27  1  0  0  0  0
 10 11  2  0  0  0  0
 10 26  1  0  0  0  0
 11 12  1  0  0  0  0
 12 13  1  0  0  0  0
 13 14  1  0  0  0  0
 13 26  2  0  0  0  0
 14 15  2  0  0  0  0
 14 25  1  0  0  0  0
 15 16  1  0  0  0  0
 15 34  1  0  0  0  0
 16 17  2  0  0  0  0
 16 18  1  0  0  0  0
 18 19  1  0  0  0  0
 18 35  1  0  0  0  0
 19 20  2  0  0  0  0
 19 25  1  0  0  0  0
 20 21  1  0  0  0  0
 20 36  1  0  0  0  0
 21 22  1  0  0  0  0
 21 23  2  0  0  0  0
 23 24  1  0  0  0  0
 23 37  1  0  0  0  0
 24 25  2  0  0  0  0
 24 38  1  0  0  0  0
 27 28  1  0  0  0  0
 27 29  2  0  0  0  0
 29 39  1  0  0  0  0
M  END
$$$$
