
 OpenBabel01122422523D

 39 42  0  0  0  0  0  0  0  0999 V2000
    1.0357   -0.1230   -0.1596 O   0  0  0  0  0  0  0  0  0  0  0  0
    2.2492   -0.0631    0.0221 C   0  0  0  0  0  0  0  0  0  0  0  0
    2.9320   -0.4637    1.1436 N   0  0  0  0  0  0  0  0  0  0  0  0
    2.3207   -0.9789    2.2482 C   0  0  0  0  0  0  0  0  0  0  0  0
    1.0498   -1.3598    2.3368 N   0  0  0  0  0  0  0  0  0  0  0  0
    0.9122   -1.6832    3.6324 N   0  0  0  0  0  0  0  0  0  0  0  0
   -0.3450   -2.0741    4.1583 C   0  0  0  0  0  0  0  0  0  0  0  0
   -0.5251   -2.2850    5.5338 C   0  0  0  0  0  0  0  0  0  0  0  0
   -1.7851   -2.6508    6.0221 C   0  0  0  0  0  0  0  0  0  0  0  0
   -2.8511   -2.8132    5.1416 C   0  0  0  0  0  0  0  0  0  0  0  0
   -4.0500   -3.1677    5.6231 F   0  0  0  0  0  0  0  0  0  0  0  0
   -2.6756   -2.6093    3.7795 C   0  0  0  0  0  0  0  0  0  0  0  0
   -3.7039   -2.7729    2.9360 F   0  0  0  0  0  0  0  0  0  0  0  0
   -1.4325   -2.2347    3.2807 C   0  0  0  0  0  0  0  0  0  0  0  0
    2.1251   -1.5404    4.2586 C   0  0  0  0  0  0  0  0  0  0  0  0
    3.0328   -1.1186    3.4033 N   0  0  0  0  0  0  0  0  0  0  0  0
    3.1137    0.5469   -0.9997 C   0  0  0  0  0  0  0  0  0  0  0  0
    4.4602    0.5871   -0.9233 N   0  0  0  0  0  0  0  0  0  0  0  0
    4.8529    1.2972   -2.0289 N   0  0  0  0  0  0  0  0  0  0  0  0
    6.2249    1.5966   -2.2544 C   0  0  0  0  0  0  0  0  0  0  0  0
    7.2066    1.0549   -1.4057 C   0  0  0  0  0  0  0  0  0  0  0  0
    8.5571    1.3714   -1.5995 C   0  0  0  0  0  0  0  0  0  0  0  0
    8.9254    2.2256   -2.6316 C   0  0  0  0  0  0  0  0  0  0  0  0
   10.2154    2.5386   -2.8048 F   0  0  0  0  0  0  0  0  0  0  0  0
    7.9739    2.7638   -3.4827 C   0  0  0  0  0  0  0  0  0  0  0  0
    6.6305    2.4450   -3.2943 C   0  0  0  0  0  0  0  0  0  0  0  0
    5.7581    3.0097   -4.1374 F   0  0  0  0  0  0  0  0  0  0  0  0
    3.7678    1.6588   -2.7923 C   0  0  0  0  0  0  0  0  0  0  0  0
    2.6454    1.1887   -2.1648 C   0  0  0  0  0  0  0  0  0  0  0  0
    3.9183   -0.2647    1.2078 H   0  0  0  0  0  0  0  0  0  0  0  0
    0.2808   -2.1576    6.2512 H   0  0  0  0  0  0  0  0  0  0  0  0
   -1.9454   -2.8045    7.0845 H   0  0  0  0  0  0  0  0  0  0  0  0
   -1.3317   -2.0786    2.2060 H   0  0  0  0  0  0  0  0  0  0  0  0
    2.2914   -1.7505    5.3041 H   0  0  0  0  0  0  0  0  0  0  0  0
    6.9399    0.3825   -0.5914 H   0  0  0  0  0  0  0  0  0  0  0  0
    9.3218    0.9605   -0.9470 H   0  0  0  0  0  0  0  0  0  0  0  0
    8.2671    3.4344   -4.2832 H   0  0  0  0  0  0  0  0  0  0  0  0
    3.8538    2.2211   -3.7082 H   0  0  0  0  0  0  0  0  0  0  0  0
    1.6169    1.3087   -2.4780 H   0  0  0  0  0  0  0  0  0  0  0  0
  1  2  2  0  0  0  0
  2  3  1  0  0  0  0
  2 17  1  0  0  0  0
  3  4  1  0  0  0  0
  3 30  1  0  0  0  0
  4  5  2  0  0  0  0
  4 16  1  0  0  0  0
  5  6  1  0  0  0  0
  6  7  1  0  0  0  0
  6 15  1  0  0  0  0
  7  8  2  0  0  0  0
  7 14  1  0  0  0  0
  8  9  1  0  0  0  0
  8 31  1  0  0  0  0
  9 10  2  0  0  0  0
  9 32  1  0  0  0  0
 10 11  1  0  0  0  0
 10 12  1  0  0  0  0
 12 13  1  0  0  0  0
 12 14  2  0  0  0  0
 14 33  1  0  0  0  0
 15 16  2  0  0  0  0
 15 34  1  0  0  0  0
 17 18  2  0  0  0  0
 17 29  1  0  0  0  0
 18 19  1  0  0  0  0
 19 20  1  0  0  0  0
 19 28  1  0  0  0  0
 20 21  2  0  0  0  0
 20 26  1  0  0  0  0
 21 22  1  0  0  0  0
 21 35  1  0  0  0  0
 22 23  2  0  0  0  0
 22 36  1  0  0  0  0
 23 24  1  0  0  0  0
 23 25  1  0  0  0  0
 25 26  2  0  0  0  0
 25 37  1  0  0  0  0
 26 27  1  0  0  0  0
 28 29  2  0  0  0  0
 28 38  1  0  0  0  0
 29 39  1  0  0  0  0
M  END
$$$$
