
 OpenBabel01122422523D

 52 54  0  0  1  0  0  0  0  0999 V2000
    4.6352    1.5405    4.0578 C   0  0  0  0  0  0  0  0  0  0  0  0
    4.0911    1.2278    2.7762 O   0  0  0  0  0  0  0  0  0  0  0  0
    4.0718   -0.1069    2.4792 C   0  0  0  0  0  0  0  0  0  0  0  0
    4.5026   -0.9958    3.2059 O   0  0  0  0  0  0  0  0  0  0  0  0
    3.2991   -0.3369    1.1624 C   0  0  3  0  0  0  0  0  0  0  0  0
    3.7405   -1.5762    0.5274 N   0  0  0  0  0  0  0  0  0  0  0  0
    4.8531   -1.6074   -0.2873 C   0  0  0  0  0  0  0  0  0  0  0  0
    5.4776   -0.5999   -0.5967 O   0  0  0  0  0  0  0  0  0  0  0  0
    5.2526   -2.9802   -0.7597 C   0  0  0  0  0  0  0  0  0  0  0  0
    6.4808   -3.1540   -1.2946 C   0  0  0  0  0  0  0  0  0  0  0  0
    6.8986   -4.3939   -1.7905 N   0  0  0  0  0  0  0  0  0  0  0  0
    8.1199   -4.5445   -2.5261 C   0  0  0  0  0  0  0  0  0  0  0  0
    7.9940   -4.9780   -3.8643 C   0  0  0  0  0  0  0  0  0  0  0  0
    9.1035   -5.1720   -4.6930 C   0  0  0  0  0  0  0  0  0  0  0  0
    8.9257   -5.6671   -6.0978 C   0  0  0  0  0  0  0  0  0  0  0  0
   10.3729   -4.9244   -4.1737 C   0  0  0  0  0  0  0  0  0  0  0  0
   10.5179   -4.4772   -2.8549 C   0  0  0  0  0  0  0  0  0  0  0  0
    9.4029   -4.2893   -2.0196 C   0  0  0  0  0  0  0  0  0  0  0  0
    9.7163   -3.8528   -0.7593 O   0  0  0  0  0  0  0  0  0  0  0  0
    9.0831   -4.5541    0.3069 C   0  0  0  0  0  0  0  0  0  0  0  0
    6.0741   -5.5311   -1.7161 C   0  0  0  0  0  0  0  0  0  0  0  0
    6.3758   -6.6744   -2.0563 O   0  0  0  0  0  0  0  0  0  0  0  0
    4.7082   -5.3105   -1.1839 C   0  0  0  0  0  0  0  0  0  0  0  0
    4.3323   -4.1011   -0.7579 C   0  0  0  0  0  0  0  0  0  0  0  0
    1.8111   -0.3329    1.4823 C   0  0  0  0  0  0  0  0  0  0  0  0
    1.0827    0.8672    1.3835 C   0  0  0  0  0  0  0  0  0  0  0  0
   -0.2244    0.9464    1.8714 C   0  0  0  0  0  0  0  0  0  0  0  0
   -0.8135   -0.1731    2.4481 C   0  0  0  0  0  0  0  0  0  0  0  0
   -2.0474   -0.0772    2.9598 F   0  0  0  0  0  0  0  0  0  0  0  0
   -0.1333   -1.3797    2.5225 C   0  0  0  0  0  0  0  0  0  0  0  0
    1.1714   -1.4483    2.0432 C   0  0  0  0  0  0  0  0  0  0  0  0
    1.8309   -2.6118    2.1526 F   0  0  0  0  0  0  0  0  0  0  0  0
    4.6677    2.6296    4.1510 H   0  0  0  0  0  0  0  0  0  0  0  0
    5.6525    1.1518    4.1564 H   0  0  0  0  0  0  0  0  0  0  0  0
    3.9875    1.1465    4.8473 H   0  0  0  0  0  0  0  0  0  0  0  0
    3.5379    0.4838    0.4756 H   0  0  0  0  0  0  0  0  0  0  0  0
    3.4627   -2.4277    1.0006 H   0  0  0  0  0  0  0  0  0  0  0  0
    7.1923   -2.3316   -1.3868 H   0  0  0  0  0  0  0  0  0  0  0  0
    6.9996   -5.1545   -4.2709 H   0  0  0  0  0  0  0  0  0  0  0  0
    7.8662   -5.7223   -6.3718 H   0  0  0  0  0  0  0  0  0  0  0  0
    9.3499   -6.6709   -6.1989 H   0  0  0  0  0  0  0  0  0  0  0  0
    9.4144   -4.9928   -6.8081 H   0  0  0  0  0  0  0  0  0  0  0  0
   11.2569   -5.0826   -4.7881 H   0  0  0  0  0  0  0  0  0  0  0  0
   11.5184   -4.3006   -2.4655 H   0  0  0  0  0  0  0  0  0  0  0  0
    9.7557   -4.5270    1.1708 H   0  0  0  0  0  0  0  0  0  0  0  0
    8.8798   -5.6048    0.0739 H   0  0  0  0  0  0  0  0  0  0  0  0
    8.1700   -4.0346    0.6045 H   0  0  0  0  0  0  0  0  0  0  0  0
    4.0427   -6.1639   -1.1980 H   0  0  0  0  0  0  0  0  0  0  0  0
    3.3067   -3.9538   -0.4446 H   0  0  0  0  0  0  0  0  0  0  0  0
    1.5448    1.7613    0.9673 H   0  0  0  0  0  0  0  0  0  0  0  0
   -0.7753    1.8821    1.8322 H   0  0  0  0  0  0  0  0  0  0  0  0
   -0.6024   -2.2456    2.9747 H   0  0  0  0  0  0  0  0  0  0  0  0
  1  2  1  0  0  0  0
  1 33  1  0  0  0  0
  1 34  1  0  0  0  0
  1 35  1  0  0  0  0
  2  3  1  0  0  0  0
  3  4  2  0  0  0  0
  3  5  1  0  0  0  0
  5  6  1  0  0  0  0
  5 25  1  0  0  0  0
  5 36  1  0  0  0  0
  6  7  1  0  0  0  0
  6 37  1  0  0  0  0
  7  8  2  0  0  0  0
  7  9  1  0  0  0  0
  9 10  2  0  0  0  0
  9 24  1  0  0  0  0
 10 11  1  0  0  0  0
 10 38  1  0  0  0  0
 11 12  1  0  0  0  0
 11 21  1  0  0  0  0
 12 13  2  0  0  0  0
 12 18  1  0  0  0  0
 13 14  1  0  0  0  0
 13 39  1  0  0  0  0
 14 15  1  0  0  0  0
 14 16  2  0  0  0  0
 15 40  1  0  0  0  0
 15 41  1  0  0  0  0
 15 42  1  0  0  0  0
 16 17  1  0  0  0  0
 16 43  1  0  0  0  0
 17 18  2  0  0  0  0
 17 44  1  0  0  0  0
 18 19  1  0  0  0  0
 19 20  1  0  0  0  0
 20 45  1  0  0  0  0
 20 46  1  0  0  0  0
 20 47  1  0  0  0  0
 21 22  2  0  0  0  0
 21 23  1  0  0  0  0
 23 24  2  0  0  0  0
 23 48  1  0  0  0  0
 24 49  1  0  0  0  0
 25 26  2  0  0  0  0
 25 31  1  0  0  0  0
 26 27  1  0  0  0  0
 26 50  1  0  0  0  0
 27 28  2  0  0  0  0
 27 51  1  0  0  0  0
 28 29  1  0  0  0  0
 28 30  1  0  0  0  0
 30 31  2  0  0  0  0
 30 52  1  0  0  0  0
 31 32  1  0  0  0  0
M  END
$$$$
