
 OpenBabel01122422523D

 40 43  0  0  0  0  0  0  0  0999 V2000
    1.5477   -0.8180    1.2986 N   0  0  0  0  0  0  0  0  0  0  0  0
    2.5731   -0.5707    0.8170 C   0  0  0  0  0  0  0  0  0  0  0  0
    3.8367   -0.2562    0.2432 C   0  0  0  0  0  0  0  0  0  0  0  0
    4.7088    0.7131    0.6741 C   0  0  0  0  0  0  0  0  0  0  0  0
    5.8175    0.6523   -0.1473 N   0  0  0  0  0  0  0  0  0  0  0  0
    7.0100    1.4188   -0.0418 C   0  0  0  0  0  0  0  0  0  0  0  0
    7.1932    2.2881    1.0362 C   0  0  0  0  0  0  0  0  0  0  0  0
    8.3691    3.0315    1.1526 C   0  0  0  0  0  0  0  0  0  0  0  0
    9.3804    2.9371    0.1982 C   0  0  0  0  0  0  0  0  0  0  0  0
   10.5781    3.6811    0.2678 N   0  0  0  0  0  0  0  0  0  0  0  0
   10.9197    4.6194    1.2346 C   0  0  0  0  0  0  0  0  0  0  0  0
   10.2129    4.9492    2.1813 O   0  0  0  0  0  0  0  0  0  0  0  0
   12.2235    5.2096    1.0583 C   0  0  0  0  0  0  0  0  0  0  0  0
   12.8877    6.1588    1.7985 C   0  0  0  0  0  0  0  0  0  0  0  0
   14.1586    6.2834    1.1872 C   0  0  0  0  0  0  0  0  0  0  0  0
   15.2939    7.0945    1.6172 C   0  0  0  0  0  0  0  0  0  0  0  0
   16.6026    6.6791    1.3183 C   0  0  0  0  0  0  0  0  0  0  0  0
   17.7008    7.4208    1.7589 C   0  0  0  0  0  0  0  0  0  0  0  0
   17.4941    8.5836    2.4919 C   0  0  0  0  0  0  0  0  0  0  0  0
   18.5496    9.2896    2.9159 F   0  0  0  0  0  0  0  0  0  0  0  0
   16.2123    9.0206    2.7934 C   0  0  0  0  0  0  0  0  0  0  0  0
   15.1215    8.2732    2.3568 C   0  0  0  0  0  0  0  0  0  0  0  0
   13.8930    8.7193    2.6615 F   0  0  0  0  0  0  0  0  0  0  0  0
   14.2332    5.4763    0.1137 N   0  0  0  0  0  0  0  0  0  0  0  0
   13.0245    4.8149    0.0345 O   0  0  0  0  0  0  0  0  0  0  0  0
    9.2006    2.0612   -0.8805 C   0  0  0  0  0  0  0  0  0  0  0  0
    8.0243    1.3022   -1.0014 C   0  0  0  0  0  0  0  0  0  0  0  0
    5.6564   -0.2847   -1.1193 N   0  0  0  0  0  0  0  0  0  0  0  0
    4.4698   -0.8413   -0.8588 C   0  0  0  0  0  0  0  0  0  0  0  0
    4.6271    1.4203    1.4855 H   0  0  0  0  0  0  0  0  0  0  0  0
    6.4566    2.4112    1.8219 H   0  0  0  0  0  0  0  0  0  0  0  0
    8.4516    3.6737    2.0225 H   0  0  0  0  0  0  0  0  0  0  0  0
   11.2582    3.5240   -0.4663 H   0  0  0  0  0  0  0  0  0  0  0  0
   12.5093    6.6535    2.6822 H   0  0  0  0  0  0  0  0  0  0  0  0
   16.7749    5.7651    0.7521 H   0  0  0  0  0  0  0  0  0  0  0  0
   18.7122    7.0935    1.5378 H   0  0  0  0  0  0  0  0  0  0  0  0
   16.0631    9.9305    3.3636 H   0  0  0  0  0  0  0  0  0  0  0  0
    9.9668    1.9540   -1.6449 H   0  0  0  0  0  0  0  0  0  0  0  0
    7.9136    0.6331   -1.8537 H   0  0  0  0  0  0  0  0  0  0  0  0
    4.1204   -1.6499   -1.4889 H   0  0  0  0  0  0  0  0  0  0  0  0
  1  2  3  0  0  0  0
  2  3  1  0  0  0  0
  3  4  2  0  0  0  0
  3 29  1  0  0  0  0
  4  5  1  0  0  0  0
  4 30  1  0  0  0  0
  5  6  1  0  0  0  0
  5 28  1  0  0  0  0
  6  7  2  0  0  0  0
  6 27  1  0  0  0  0
  7  8  1  0  0  0  0
  7 31  1  0  0  0  0
  8  9  2  0  0  0  0
  8 32  1  0  0  0  0
  9 10  1  0  0  0  0
  9 26  1  0  0  0  0
 10 11  1  0  0  0  0
 10 33  1  0  0  0  0
 11 12  2  0  0  0  0
 11 13  1  0  0  0  0
 13 14  2  0  0  0  0
 13 25  1  0  0  0  0
 14 15  1  0  0  0  0
 14 34  1  0  0  0  0
 15 16  1  0  0  0  0
 15 24  2  0  0  0  0
 16 17  2  0  0  0  0
 16 22  1  0  0  0  0
 17 18  1  0  0  0  0
 17 35  1  0  0  0  0
 18 19  2  0  0  0  0
 18 36  1  0  0  0  0
 19 20  1  0  0  0  0
 19 21  1  0  0  0  0
 21 22  2  0  0  0  0
 21 37  1  0  0  0  0
 22 23  1  0  0  0  0
 24 25  1  0  0  0  0
 26 27  2  0  0  0  0
 26 38  1  0  0  0  0
 27 39  1  0  0  0  0
 28 29  2  0  0  0  0
 29 40  1  0  0  0  0
M  END
$$$$
