
 OpenBabel01122422523D

 47 50  0  0  0  0  0  0  0  0999 V2000
    1.1843    0.0869   -0.1362 O   0  0  0  0  0  0  0  0  0  0  0  0
    2.4058    0.0953   -0.0976 C   0  0  0  0  0  0  0  0  0  0  0  0
    3.1492    0.2584    1.0493 N   0  0  0  0  0  0  0  0  0  0  0  0
    2.4605    0.5513    2.2904 C   0  0  0  0  0  0  0  0  0  0  0  0
    3.3692    0.9623    3.4307 C   0  0  0  0  0  0  0  0  0  0  0  0
    4.6814    1.1459    3.0684 N   0  0  0  0  0  0  0  0  0  0  0  0
    5.5590    1.4996    4.0263 C   0  0  0  0  0  0  0  0  0  0  0  0
    5.2055    1.6959    5.3427 C   0  0  0  0  0  0  0  0  0  0  0  0
    3.8680    1.5294    5.6967 C   0  0  0  0  0  0  0  0  0  0  0  0
    2.8900    1.1512    4.7520 C   0  0  0  0  0  0  0  0  0  0  0  0
    1.4785    0.9442    5.2044 C   0  0  0  0  0  0  0  0  0  0  0  0
    0.3614    1.2962    4.4265 C   0  0  0  0  0  0  0  0  0  0  0  0
   -0.9490    1.0038    4.8256 C   0  0  0  0  0  0  0  0  0  0  0  0
   -1.1883    0.4219    6.0622 C   0  0  0  0  0  0  0  0  0  0  0  0
   -0.1164    0.1383    6.8982 C   0  0  0  0  0  0  0  0  0  0  0  0
    1.1955    0.3813    6.4678 C   0  0  0  0  0  0  0  0  0  0  0  0
    3.1745   -0.0351   -1.3892 C   0  0  0  0  0  0  0  0  0  0  0  0
    4.1738    0.7736   -1.5910 N   0  0  0  0  0  0  0  0  0  0  0  0
    4.8153    0.7412   -2.8273 N   0  0  0  0  0  0  0  0  0  0  0  0
    5.8727    1.7063   -2.9592 C   0  0  0  0  0  0  0  0  0  0  0  0
    6.2945    2.1811   -4.2118 C   0  0  0  0  0  0  0  0  0  0  0  0
    7.2808    3.1676   -4.3227 C   0  0  0  0  0  0  0  0  0  0  0  0
    7.8786    3.6886   -3.1811 C   0  0  0  0  0  0  0  0  0  0  0  0
    7.4902    3.2234   -1.9286 C   0  0  0  0  0  0  0  0  0  0  0  0
    6.4908    2.2487   -1.8189 C   0  0  0  0  0  0  0  0  0  0  0  0
    4.3931   -0.0761   -3.8897 C   0  0  0  0  0  0  0  0  0  0  0  0
    4.9736   -0.2498   -4.9609 O   0  0  0  0  0  0  0  0  0  0  0  0
    3.2484   -0.7913   -3.6768 N   0  0  0  0  0  0  0  0  0  0  0  0
    2.7506   -1.0288   -2.4352 C   0  0  0  0  0  0  0  0  0  0  0  0
    2.0771   -2.0071   -2.1541 O   0  0  0  0  0  0  0  0  0  0  0  0
    4.1350    0.4967    0.9983 H   0  0  0  0  0  0  0  0  0  0  0  0
    1.8841   -0.3403    2.5585 H   0  0  0  0  0  0  0  0  0  0  0  0
    1.7875    1.3791    2.0573 H   0  0  0  0  0  0  0  0  0  0  0  0
    6.5862    1.6252    3.6966 H   0  0  0  0  0  0  0  0  0  0  0  0
    5.9485    1.9746    6.0819 H   0  0  0  0  0  0  0  0  0  0  0  0
    3.5964    1.7050    6.7360 H   0  0  0  0  0  0  0  0  0  0  0  0
    0.4684    1.8221    3.4849 H   0  0  0  0  0  0  0  0  0  0  0  0
   -1.7794    1.2407    4.1643 H   0  0  0  0  0  0  0  0  0  0  0  0
   -2.2054    0.2023    6.3753 H   0  0  0  0  0  0  0  0  0  0  0  0
   -0.2960   -0.2852    7.8832 H   0  0  0  0  0  0  0  0  0  0  0  0
    2.0000    0.1099    7.1484 H   0  0  0  0  0  0  0  0  0  0  0  0
    5.8406    1.8356   -5.1359 H   0  0  0  0  0  0  0  0  0  0  0  0
    7.5685    3.5325   -5.3058 H   0  0  0  0  0  0  0  0  0  0  0  0
    8.6409    4.4581   -3.2688 H   0  0  0  0  0  0  0  0  0  0  0  0
    7.9594    3.6217   -1.0328 H   0  0  0  0  0  0  0  0  0  0  0  0
    6.2149    1.9067   -0.8244 H   0  0  0  0  0  0  0  0  0  0  0  0
    3.0341   -1.4727   -4.3891 H   0  0  0  0  0  0  0  0  0  0  0  0
  1  2  2  0  0  0  0
  2  3  1  0  0  0  0
  2 17  1  0  0  0  0
  3  4  1  0  0  0  0
  3 31  1  0  0  0  0
  4  5  1  0  0  0  0
  4 32  1  0  0  0  0
  4 33  1  0  0  0  0
  5  6  2  0  0  0  0
  5 10  1  0  0  0  0
  6  7  1  0  0  0  0
  7  8  2  0  0  0  0
  7 34  1  0  0  0  0
  8  9  1  0  0  0  0
  8 35  1  0  0  0  0
  9 10  2  0  0  0  0
  9 36  1  0  0  0  0
 10 11  1  0  0  0  0
 11 12  2  0  0  0  0
 11 16  1  0  0  0  0
 12 13  1  0  0  0  0
 12 37  1  0  0  0  0
 13 14  2  0  0  0  0
 13 38  1  0  0  0  0
 14 15  1  0  0  0  0
 14 39  1  0  0  0  0
 15 16  2  0  0  0  0
 15 40  1  0  0  0  0
 16 41  1  0  0  0  0
 17 18  2  0  0  0  0
 17 29  1  0  0  0  0
 18 19  1  0  0  0  0
 19 20  1  0  0  0  0
 19 26  1  0  0  0  0
 20 21  2  0  0  0  0
 20 25  1  0  0  0  0
 21 22  1  0  0  0  0
 21 42  1  0  0  0  0
 22 23  2  0  0  0  0
 22 43  1  0  0  0  0
 23 24  1  0  0  0  0
 23 44  1  0  0  0  0
 24 25  2  0  0  0  0
 24 45  1  0  0  0  0
 25 46  1  0  0  0  0
 26 27  2  0  0  0  0
 26 28  1  0  0  0  0
 28 29  1  0  0  0  0
 28 47  1  0  0  0  0
 29 30  2  0  0  0  0
M  END
$$$$
