
 OpenBabel01122422523D

 42 45  0  0  0  0  0  0  0  0999 V2000
    3.3334   -1.5079    1.7570 O   0  0  0  0  0  0  0  0  0  0  0  0
    2.5279   -1.2171    0.8877 C   0  0  0  0  0  0  0  0  0  0  0  0
    2.8128   -0.9632   -0.4122 O   0  0  0  0  0  0  0  0  0  0  0  0
    4.2074   -0.9361   -0.7550 C   0  0  0  0  0  0  0  0  0  0  0  0
    4.5052   -2.0054   -1.7635 C   0  0  0  0  0  0  0  0  0  0  0  0
    4.9199   -3.2755   -1.3695 C   0  0  0  0  0  0  0  0  0  0  0  0
    5.1717   -4.2501   -2.3346 C   0  0  0  0  0  0  0  0  0  0  0  0
    4.9960   -3.9513   -3.6874 C   0  0  0  0  0  0  0  0  0  0  0  0
    5.2017   -4.9710   -4.7473 C   0  0  0  0  0  0  0  0  0  0  0  0
    5.0290   -4.6882   -6.1041 C   0  0  0  0  0  0  0  0  0  0  0  0
    5.2007   -5.7020   -7.0467 C   0  0  0  0  0  0  0  0  0  0  0  0
    5.5441   -6.9772   -6.6204 C   0  0  0  0  0  0  0  0  0  0  0  0
    5.7074   -7.1854   -5.2638 C   0  0  0  0  0  0  0  0  0  0  0  0
    5.5466   -6.2227   -4.3292 N   0  0  0  0  0  0  0  0  0  0  0  0
    4.5988   -2.7095   -4.0850 N   0  0  0  0  0  0  0  0  0  0  0  0
    4.3636   -1.7806   -3.1265 C   0  0  0  0  0  0  0  0  0  0  0  0
    1.0826   -0.9854    1.1777 C   0  0  0  0  0  0  0  0  0  0  0  0
    0.1554   -0.6277    0.1824 C   0  0  0  0  0  0  0  0  0  0  0  0
   -1.1432   -0.2417    0.5393 C   0  0  0  0  0  0  0  0  0  0  0  0
   -1.5110   -0.2269    1.8905 C   0  0  0  0  0  0  0  0  0  0  0  0
   -2.7551    0.3057    2.2624 N   0  0  0  0  0  0  0  0  0  0  0  0
   -3.6249    0.8742    1.3701 C   0  0  0  0  0  0  0  0  0  0  0  0
   -4.6419    1.4607    1.7209 O   0  0  0  0  0  0  0  0  0  0  0  0
   -3.2789    0.7394   -0.0662 C   0  0  0  0  0  0  0  0  0  0  0  0
   -2.1165    0.2017   -0.4598 C   0  0  0  0  0  0  0  0  0  0  0  0
   -0.6182   -0.6683    2.8627 C   0  0  0  0  0  0  0  0  0  0  0  0
   -0.9852   -0.6809    4.1528 F   0  0  0  0  0  0  0  0  0  0  0  0
    0.6744   -1.0407    2.5174 C   0  0  0  0  0  0  0  0  0  0  0  0
    4.8731   -1.0363    0.1107 H   0  0  0  0  0  0  0  0  0  0  0  0
    4.4173    0.0503   -1.1847 H   0  0  0  0  0  0  0  0  0  0  0  0
    5.0485   -3.5177   -0.3169 H   0  0  0  0  0  0  0  0  0  0  0  0
    5.4927   -5.2418   -2.0277 H   0  0  0  0  0  0  0  0  0  0  0  0
    4.7543   -3.6887   -6.4282 H   0  0  0  0  0  0  0  0  0  0  0  0
    5.0617   -5.4945   -8.1038 H   0  0  0  0  0  0  0  0  0  0  0  0
    5.6796   -7.7889   -7.3262 H   0  0  0  0  0  0  0  0  0  0  0  0
    5.9766   -8.1639   -4.8762 H   0  0  0  0  0  0  0  0  0  0  0  0
    4.0454   -0.8131   -3.5073 H   0  0  0  0  0  0  0  0  0  0  0  0
    0.4569   -0.6074   -0.8633 H   0  0  0  0  0  0  0  0  0  0  0  0
   -2.9900    0.3853    3.2448 H   0  0  0  0  0  0  0  0  0  0  0  0
   -4.0197    1.1016   -0.7684 H   0  0  0  0  0  0  0  0  0  0  0  0
   -1.8817    0.0921   -1.5131 H   0  0  0  0  0  0  0  0  0  0  0  0
    1.3670   -1.3312    3.3050 H   0  0  0  0  0  0  0  0  0  0  0  0
  1  2  2  0  0  0  0
  2  3  1  0  0  0  0
  2 17  1  0  0  0  0
  3  4  1  0  0  0  0
  4  5  1  0  0  0  0
  4 29  1  0  0  0  0
  4 30  1  0  0  0  0
  5  6  2  0  0  0  0
  5 16  1  0  0  0  0
  6  7  1  0  0  0  0
  6 31  1  0  0  0  0
  7  8  2  0  0  0  0
  7 32  1  0  0  0  0
  8  9  1  0  0  0  0
  8 15  1  0  0  0  0
  9 10  2  0  0  0  0
  9 14  1  0  0  0  0
 10 11  1  0  0  0  0
 10 33  1  0  0  0  0
 11 12  2  0  0  0  0
 11 34  1  0  0  0  0
 12 13  1  0  0  0  0
 12 35  1  0  0  0  0
 13 14  2  0  0  0  0
 13 36  1  0  0  0  0
 15 16  2  0  0  0  0
 16 37  1  0  0  0  0
 17 18  2  0  0  0  0
 17 28  1  0  0  0  0
 18 19  1  0  0  0  0
 18 38  1  0  0  0  0
 19 20  2  0  0  0  0
 19 25  1  0  0  0  0
 20 21  1  0  0  0  0
 20 26  1  0  0  0  0
 21 22  1  0  0  0  0
 21 39  1  0  0  0  0
 22 23  2  0  0  0  0
 22 24  1  0  0  0  0
 24 25  2  0  0  0  0
 24 40  1  0  0  0  0
 25 41  1  0  0  0  0
 26 27  1  0  0  0  0
 26 28  2  0  0  0  0
 28 42  1  0  0  0  0
M  END
$$$$
