
 OpenBabel01122422523D

 55 58  0  0  1  0  0  0  0  0999 V2000
    1.2740   -0.7524    1.0250 C   0  0  0  0  0  0  0  0  0  0  0  0
    2.6919   -0.6072    1.0971 O   0  0  0  0  0  0  0  0  0  0  0  0
    3.1262    0.6657    1.3566 C   0  0  0  0  0  0  0  0  0  0  0  0
    2.3943    1.6205    2.0610 C   0  0  0  0  0  0  0  0  0  0  0  0
    2.8877    2.9159    2.2007 C   0  0  0  0  0  0  0  0  0  0  0  0
    4.1508    3.2400    1.7103 C   0  0  0  0  0  0  0  0  0  0  0  0
    4.9641    2.2464    1.1477 C   0  0  0  0  0  0  0  0  0  0  0  0
    6.4294    2.5198    0.8816 C   0  0  0  0  0  0  0  0  0  0  0  0
    7.2060    2.9100    2.1684 C   0  0  3  0  0  0  0  0  0  0  0  0
    7.1521    1.8584    3.1929 N   0  0  0  0  0  0  0  0  0  0  0  0
    7.2335    2.1947    4.5275 C   0  0  0  0  0  0  0  0  0  0  0  0
    7.2685    3.3500    4.9325 O   0  0  0  0  0  0  0  0  0  0  0  0
    7.2782    1.0861    5.5200 C   0  0  0  0  0  0  0  0  0  0  0  0
    7.9692    1.3308    6.7122 C   0  0  0  0  0  0  0  0  0  0  0  0
    7.8863    0.4341    7.7772 C   0  0  0  0  0  0  0  0  0  0  0  0
    7.1040   -0.7223    7.6670 C   0  0  0  0  0  0  0  0  0  0  0  0
    6.9088   -1.6159    8.8748 C   0  0  0  0  0  0  0  0  0  0  0  0
    5.4973   -1.7075    9.3521 C   0  0  0  0  0  0  0  0  0  0  0  0
    4.9159   -2.7490    9.9112 N   0  0  0  0  0  0  0  0  0  0  0  0
    3.6529   -2.3728   10.3068 N   0  0  0  0  0  0  0  0  0  0  0  0
    3.4905   -1.1143    9.9766 C   0  0  0  0  0  0  0  0  0  0  0  0
    4.6063   -0.6636    9.3418 N   0  0  0  0  0  0  0  0  0  0  0  0
    6.4815   -1.0086    6.4399 C   0  0  0  0  0  0  0  0  0  0  0  0
    6.5638   -0.1060    5.3680 C   0  0  0  0  0  0  0  0  0  0  0  0
    8.6571    3.2749    1.8882 C   0  0  0  0  0  0  0  0  0  0  0  0
    9.1400    4.5522    2.2374 C   0  0  0  0  0  0  0  0  0  0  0  0
   10.4808    4.8866    2.0359 C   0  0  0  0  0  0  0  0  0  0  0  0
   11.3588    3.9524    1.4922 C   0  0  0  0  0  0  0  0  0  0  0  0
   10.8956    2.6857    1.1438 C   0  0  0  0  0  0  0  0  0  0  0  0
    9.5541    2.3495    1.3392 C   0  0  0  0  0  0  0  0  0  0  0  0
    4.4180    0.9751    0.9212 C   0  0  0  0  0  0  0  0  0  0  0  0
    1.0525   -1.7705    0.6922 H   0  0  0  0  0  0  0  0  0  0  0  0
    0.8422   -0.0578    0.2951 H   0  0  0  0  0  0  0  0  0  0  0  0
    0.8099   -0.6247    2.0081 H   0  0  0  0  0  0  0  0  0  0  0  0
    1.4421    1.3824    2.5214 H   0  0  0  0  0  0  0  0  0  0  0  0
    2.2978    3.6659    2.7208 H   0  0  0  0  0  0  0  0  0  0  0  0
    4.5124    4.2597    1.8244 H   0  0  0  0  0  0  0  0  0  0  0  0
    6.5146    3.3200    0.1339 H   0  0  0  0  0  0  0  0  0  0  0  0
    6.8895    1.6224    0.4286 H   0  0  0  0  0  0  0  0  0  0  0  0
    6.7174    3.7962    2.5991 H   0  0  0  0  0  0  0  0  0  0  0  0
    7.3096    0.9059    2.9093 H   0  0  0  0  0  0  0  0  0  0  0  0
    8.5473    2.2461    6.8251 H   0  0  0  0  0  0  0  0  0  0  0  0
    8.4102    0.6698    8.7017 H   0  0  0  0  0  0  0  0  0  0  0  0
    7.5076   -1.2370    9.7140 H   0  0  0  0  0  0  0  0  0  0  0  0
    7.2970   -2.6151    8.6478 H   0  0  0  0  0  0  0  0  0  0  0  0
    2.6187   -0.5062   10.1705 H   0  0  0  0  0  0  0  0  0  0  0  0
    4.7600    0.2574    8.9571 H   0  0  0  0  0  0  0  0  0  0  0  0
    5.8878   -1.9162    6.3292 H   0  0  0  0  0  0  0  0  0  0  0  0
    6.0143   -0.3221    4.4538 H   0  0  0  0  0  0  0  0  0  0  0  0
    8.4779    5.2852    2.6946 H   0  0  0  0  0  0  0  0  0  0  0  0
   10.8441    5.8709    2.3196 H   0  0  0  0  0  0  0  0  0  0  0  0
   12.4057    4.2072    1.3513 H   0  0  0  0  0  0  0  0  0  0  0  0
   11.5837    1.9523    0.7315 H   0  0  0  0  0  0  0  0  0  0  0  0
    9.2215    1.3487    1.0777 H   0  0  0  0  0  0  0  0  0  0  0  0
    5.0023    0.2081    0.4176 H   0  0  0  0  0  0  0  0  0  0  0  0
  1  2  1  0  0  0  0
  1 32  1  0  0  0  0
  1 33  1  0  0  0  0
  1 34  1  0  0  0  0
  2  3  1  0  0  0  0
  3  4  2  0  0  0  0
  3 31  1  0  0  0  0
  4  5  1  0  0  0  0
  4 35  1  0  0  0  0
  5  6  2  0  0  0  0
  5 36  1  0  0  0  0
  6  7  1  0  0  0  0
  6 37  1  0  0  0  0
  7  8  1  0  0  0  0
  7 31  2  0  0  0  0
  8  9  1  0  0  0  0
  8 38  1  0  0  0  0
  8 39  1  0  0  0  0
  9 10  1  0  0  0  0
  9 25  1  0  0  0  0
  9 40  1  0  0  0  0
 10 11  1  0  0  0  0
 10 41  1  0  0  0  0
 11 12  2  0  0  0  0
 11 13  1  0  0  0  0
 13 14  2  0  0  0  0
 13 24  1  0  0  0  0
 14 15  1  0  0  0  0
 14 42  1  0  0  0  0
 15 16  2  0  0  0  0
 15 43  1  0  0  0  0
 16 17  1  0  0  0  0
 16 23  1  0  0  0  0
 17 18  1  0  0  0  0
 17 44  1  0  0  0  0
 17 45  1  0  0  0  0
 18 19  2  0  0  0  0
 18 22  1  0  0  0  0
 19 20  1  0  0  0  0
 20 21  2  0  0  0  0
 21 22  1  0  0  0  0
 21 46  1  0  0  0  0
 22 47  1  0  0  0  0
 23 24  2  0  0  0  0
 23 48  1  0  0  0  0
 24 49  1  0  0  0  0
 25 26  2  0  0  0  0
 25 30  1  0  0  0  0
 26 27  1  0  0  0  0
 26 50  1  0  0  0  0
 27 28  2  0  0  0  0
 27 51  1  0  0  0  0
 28 29  1  0  0  0  0
 28 52  1  0  0  0  0
 29 30  2  0  0  0  0
 29 53  1  0  0  0  0
 30 54  1  0  0  0  0
 31 55  1  0  0  0  0
M  END
$$$$
