
 OpenBabel01122422463D

 45 48  0  0  0  0  0  0  0  0999 V2000
    1.3058    0.0125   -1.4367 C   0  0  0  0  0  0  0  0  0  0  0  0
    2.7111    0.0121   -1.1809 O   0  0  0  0  0  0  0  0  0  0  0  0
    3.3064    1.2333   -1.2486 C   0  0  0  0  0  0  0  0  0  0  0  0
    2.7428    2.2860   -1.5053 O   0  0  0  0  0  0  0  0  0  0  0  0
    4.7675    1.1065   -0.9590 C   0  0  0  0  0  0  0  0  0  0  0  0
    5.5114    2.2381   -0.9087 C   0  0  0  0  0  0  0  0  0  0  0  0
    6.9105    2.1579   -0.6488 C   0  0  0  0  0  0  0  0  0  0  0  0
    7.8616    3.0663   -0.5208 N   0  0  0  0  0  0  0  0  0  0  0  0
    8.9922    2.3111   -0.3414 C   0  0  0  0  0  0  0  0  0  0  0  0
   10.2066    2.9369   -0.2316 N   0  0  0  0  0  0  0  0  0  0  0  0
   11.4084    2.2595   -0.2314 C   0  0  0  0  0  0  0  0  0  0  0  0
   11.5709    1.0449   -0.3047 O   0  0  0  0  0  0  0  0  0  0  0  0
   12.6372    3.0942   -0.1543 C   0  0  0  0  0  0  0  0  0  0  0  0
   13.7923    2.5369    0.4065 C   0  0  0  0  0  0  0  0  0  0  0  0
   14.9809    3.2779    0.4818 C   0  0  0  0  0  0  0  0  0  0  0  0
   15.0652    4.5843   -0.0330 C   0  0  0  0  0  0  0  0  0  0  0  0
   16.3215    5.3884    0.0470 C   0  0  0  0  0  0  0  0  0  0  0  0
   17.5792    4.7508   -0.0622 C   0  0  0  0  0  0  0  0  0  0  0  0
   18.7835    5.4681   -0.0467 C   0  0  0  0  0  0  0  0  0  0  0  0
   18.7713    6.8526    0.0494 C   0  0  0  0  0  0  0  0  0  0  0  0
   17.5561    7.5139    0.1810 C   0  0  0  0  0  0  0  0  0  0  0  0
   16.3446    6.7972    0.2185 C   0  0  0  0  0  0  0  0  0  0  0  0
   15.1616    7.5759    0.4623 C   0  0  0  0  0  0  0  0  0  0  0  0
   14.2159    8.2253    0.6424 N   0  0  0  0  0  0  0  0  0  0  0  0
   13.9072    5.0841   -0.6630 C   0  0  0  0  0  0  0  0  0  0  0  0
   12.7013    4.3733   -0.6975 C   0  0  0  0  0  0  0  0  0  0  0  0
    8.7865    1.0005   -0.3015 N   0  0  0  0  0  0  0  0  0  0  0  0
    7.4660    0.8888   -0.4846 N   0  0  0  0  0  0  0  0  0  0  0  0
    6.7095   -0.2758   -0.5229 C   0  0  0  0  0  0  0  0  0  0  0  0
    5.3908   -0.2050   -0.7461 C   0  0  0  0  0  0  0  0  0  0  0  0
    0.9381   -1.0058   -1.2791 H   0  0  0  0  0  0  0  0  0  0  0  0
    1.1096    0.2945   -2.4757 H   0  0  0  0  0  0  0  0  0  0  0  0
    0.7848    0.6808   -0.7439 H   0  0  0  0  0  0  0  0  0  0  0  0
    5.0769    3.2212   -1.0730 H   0  0  0  0  0  0  0  0  0  0  0  0
   10.1484    3.9410   -0.1711 H   0  0  0  0  0  0  0  0  0  0  0  0
   13.7724    1.5154    0.7859 H   0  0  0  0  0  0  0  0  0  0  0  0
   15.8407    2.8007    0.9487 H   0  0  0  0  0  0  0  0  0  0  0  0
   17.6456    3.6699   -0.1755 H   0  0  0  0  0  0  0  0  0  0  0  0
   19.7314    4.9394   -0.1230 H   0  0  0  0  0  0  0  0  0  0  0  0
   19.7016    7.4144    0.0321 H   0  0  0  0  0  0  0  0  0  0  0  0
   17.5529    8.6010    0.2653 H   0  0  0  0  0  0  0  0  0  0  0  0
   13.9168    6.0485   -1.1666 H   0  0  0  0  0  0  0  0  0  0  0  0
   11.8502    4.8285   -1.1942 H   0  0  0  0  0  0  0  0  0  0  0  0
    7.2515   -1.1978   -0.3647 H   0  0  0  0  0  0  0  0  0  0  0  0
    4.7885   -1.1069   -0.7780 H   0  0  0  0  0  0  0  0  0  0  0  0
  1  2  1  0  0  0  0
  1 31  1  0  0  0  0
  1 32  1  0  0  0  0
  1 33  1  0  0  0  0
  2  3  1  0  0  0  0
  3  4  2  0  0  0  0
  3  5  1  0  0  0  0
  5  6  2  0  0  0  0
  5 30  1  0  0  0  0
  6  7  1  0  0  0  0
  6 34  1  0  0  0  0
  7  8  2  0  0  0  0
  7 28  1  0  0  0  0
  8  9  1  0  0  0  0
  9 10  1  0  0  0  0
  9 27  2  0  0  0  0
 10 11  1  0  0  0  0
 10 35  1  0  0  0  0
 11 12  2  0  0  0  0
 11 13  1  0  0  0  0
 13 14  2  0  0  0  0
 13 26  1  0  0  0  0
 14 15  1  0  0  0  0
 14 36  1  0  0  0  0
 15 16  2  0  0  0  0
 15 37  1  0  0  0  0
 16 17  1  0  0  0  0
 16 25  1  0  0  0  0
 17 18  2  0  0  0  0
 17 22  1  0  0  0  0
 18 19  1  0  0  0  0
 18 38  1  0  0  0  0
 19 20  2  0  0  0  0
 19 39  1  0  0  0  0
 20 21  1  0  0  0  0
 20 40  1  0  0  0  0
 21 22  2  0  0  0  0
 21 41  1  0  0  0  0
 22 23  1  0  0  0  0
 23 24  3  0  0  0  0
 25 26  2  0  0  0  0
 25 42  1  0  0  0  0
 26 43  1  0  0  0  0
 27 28  1  0  0  0  0
 28 29  1  0  0  0  0
 29 30  2  0  0  0  0
 29 44  1  0  0  0  0
 30 45  1  0  0  0  0
M  END
$$$$
