
 OpenBabel01122422523D

 51 54  0  0  0  0  0  0  0  0999 V2000
    2.5121    0.1796    0.1278 C   0  0  0  0  0  0  0  0  0  0  0  0
    1.0181   -0.0046    0.1197 C   0  0  0  0  0  0  0  0  0  0  0  0
    0.2183    1.1597   -0.0225 C   0  0  0  0  0  0  0  0  0  0  0  0
   -1.1687    1.1068   -0.1011 C   0  0  0  0  0  0  0  0  0  0  0  0
   -1.8307    2.2762   -0.2677 O   0  0  0  0  0  0  0  0  0  0  0  0
   -3.1915    2.1746   -0.7157 C   0  0  0  0  0  0  0  0  0  0  0  0
   -3.7002    3.4727   -1.2940 C   0  0  0  0  0  0  0  0  0  0  0  0
   -2.9856    4.6749   -1.2214 C   0  0  0  0  0  0  0  0  0  0  0  0
   -3.4993    5.8271   -1.8104 C   0  0  0  0  0  0  0  0  0  0  0  0
   -4.7361    5.7469   -2.4298 C   0  0  0  0  0  0  0  0  0  0  0  0
   -5.4691    4.6119   -2.5084 N   0  0  0  0  0  0  0  0  0  0  0  0
   -4.9359    3.5025   -1.9447 C   0  0  0  0  0  0  0  0  0  0  0  0
   -1.7879   -0.1589    0.0332 C   0  0  0  0  0  0  0  0  0  0  0  0
   -1.0109   -1.3043    0.1903 C   0  0  0  0  0  0  0  0  0  0  0  0
    0.3908   -1.2671    0.2456 C   0  0  0  0  0  0  0  0  0  0  0  0
    1.1363   -2.4567    0.4190 N   0  0  0  0  0  0  0  0  0  0  0  0
    0.6628   -3.7065    0.7445 C   0  0  0  0  0  0  0  0  0  0  0  0
   -0.4823   -3.9428    1.1181 O   0  0  0  0  0  0  0  0  0  0  0  0
    1.7066   -4.8251    0.7440 C   0  0  0  0  0  0  0  0  0  0  0  0
    2.2206   -5.0057    2.0991 N   0  0  0  0  0  0  0  0  0  0  0  0
    1.3700   -5.5237    3.0642 C   0  0  0  0  0  0  0  0  0  0  0  0
    1.6353   -5.4089    4.3696 C   0  0  0  0  0  0  0  0  0  0  0  0
    2.9203   -4.8426    4.7809 C   0  0  0  0  0  0  0  0  0  0  0  0
    3.2674   -4.7735    6.1219 C   0  0  0  0  0  0  0  0  0  0  0  0
    4.5279   -5.2081    6.4999 C   0  0  0  0  0  0  0  0  0  0  0  0
    5.5220   -5.3140    5.5300 C   0  0  0  0  0  0  0  0  0  0  0  0
    5.2483   -4.9510    4.2075 C   0  0  0  0  0  0  0  0  0  0  0  0
    3.9245   -4.7599    3.8228 C   0  0  0  0  0  0  0  0  0  0  0  0
    3.5065   -4.5534    2.4113 C   0  0  0  0  0  0  0  0  0  0  0  0
    4.2611   -4.0126    1.6080 O   0  0  0  0  0  0  0  0  0  0  0  0
    2.7895    1.2229    0.3266 H   0  0  0  0  0  0  0  0  0  0  0  0
    2.9251   -0.0944   -0.8489 H   0  0  0  0  0  0  0  0  0  0  0  0
    2.9918   -0.4190    0.9094 H   0  0  0  0  0  0  0  0  0  0  0  0
    0.6932    2.1359   -0.1047 H   0  0  0  0  0  0  0  0  0  0  0  0
   -3.8278    1.8970    0.1344 H   0  0  0  0  0  0  0  0  0  0  0  0
   -3.2625    1.4196   -1.5090 H   0  0  0  0  0  0  0  0  0  0  0  0
   -2.0175    4.7150   -0.7274 H   0  0  0  0  0  0  0  0  0  0  0  0
   -2.9467    6.7603   -1.7871 H   0  0  0  0  0  0  0  0  0  0  0  0
   -5.1738    6.6187   -2.9093 H   0  0  0  0  0  0  0  0  0  0  0  0
   -5.5512    2.6083   -2.0415 H   0  0  0  0  0  0  0  0  0  0  0  0
   -2.8743   -0.2734    0.0341 H   0  0  0  0  0  0  0  0  0  0  0  0
   -1.5451   -2.2419    0.2352 H   0  0  0  0  0  0  0  0  0  0  0  0
    2.1496   -2.3565    0.3608 H   0  0  0  0  0  0  0  0  0  0  0  0
    2.5063   -4.6077    0.0309 H   0  0  0  0  0  0  0  0  0  0  0  0
    1.2064   -5.7433    0.4176 H   0  0  0  0  0  0  0  0  0  0  0  0
    0.4620   -6.0131    2.7163 H   0  0  0  0  0  0  0  0  0  0  0  0
    0.9968   -5.8714    5.1154 H   0  0  0  0  0  0  0  0  0  0  0  0
    2.6065   -4.3046    6.8453 H   0  0  0  0  0  0  0  0  0  0  0  0
    4.7333   -5.4308    7.5440 H   0  0  0  0  0  0  0  0  0  0  0  0
    6.5205   -5.6261    5.8203 H   0  0  0  0  0  0  0  0  0  0  0  0
    6.0455   -4.9055    3.4709 H   0  0  0  0  0  0  0  0  0  0  0  0
  1  2  1  0  0  0  0
  1 31  1  0  0  0  0
  1 32  1  0  0  0  0
  1 33  1  0  0  0  0
  2  3  2  0  0  0  0
  2 15  1  0  0  0  0
  3  4  1  0  0  0  0
  3 34  1  0  0  0  0
  4  5  1  0  0  0  0
  4 13  2  0  0  0  0
  5  6  1  0  0  0  0
  6  7  1  0  0  0  0
  6 35  1  0  0  0  0
  6 36  1  0  0  0  0
  7  8  2  0  0  0  0
  7 12  1  0  0  0  0
  8  9  1  0  0  0  0
  8 37  1  0  0  0  0
  9 10  2  0  0  0  0
  9 38  1  0  0  0  0
 10 11  1  0  0  0  0
 10 39  1  0  0  0  0
 11 12  2  0  0  0  0
 12 40  1  0  0  0  0
 13 14  1  0  0  0  0
 13 41  1  0  0  0  0
 14 15  2  0  0  0  0
 14 42  1  0  0  0  0
 15 16  1  0  0  0  0
 16 17  1  0  0  0  0
 16 43  1  0  0  0  0
 17 18  2  0  0  0  0
 17 19  1  0  0  0  0
 19 20  1  0  0  0  0
 19 44  1  0  0  0  0
 19 45  1  0  0  0  0
 20 21  1  0  0  0  0
 20 29  1  0  0  0  0
 21 22  2  0  0  0  0
 21 46  1  0  0  0  0
 22 23  1  0  0  0  0
 22 47  1  0  0  0  0
 23 24  2  0  0  0  0
 23 28  1  0  0  0  0
 24 25  1  0  0  0  0
 24 48  1  0  0  0  0
 25 26  2  0  0  0  0
 25 49  1  0  0  0  0
 26 27  1  0  0  0  0
 26 50  1  0  0  0  0
 27 28  2  0  0  0  0
 27 51  1  0  0  0  0
 28 29  1  0  0  0  0
 29 30  2  0  0  0  0
M  END
$$$$
