
 OpenBabel01122422523D

 43 46  0  0  0  0  0  0  0  0999 V2000
    1.1191    0.4901   -0.3042 O   0  0  0  0  0  0  0  0  0  0  0  0
    2.1920    0.0270    0.0711 C   0  0  0  0  0  0  0  0  0  0  0  0
    2.7913    0.3043    1.2775 N   0  0  0  0  0  0  0  0  0  0  0  0
    2.2417    1.1342    2.2158 C   0  0  0  0  0  0  0  0  0  0  0  0
    0.9911    1.5914    2.2493 N   0  0  0  0  0  0  0  0  0  0  0  0
    0.9911    2.4222    3.3080 N   0  0  0  0  0  0  0  0  0  0  0  0
   -0.1586    3.1720    3.6676 C   0  0  0  0  0  0  0  0  0  0  0  0
   -1.3684    2.9586    2.9856 C   0  0  0  0  0  0  0  0  0  0  0  0
   -2.5015    3.6882    3.3416 C   0  0  0  0  0  0  0  0  0  0  0  0
   -3.6566    3.4692    2.7003 F   0  0  0  0  0  0  0  0  0  0  0  0
   -2.4570    4.6374    4.3517 C   0  0  0  0  0  0  0  0  0  0  0  0
   -1.2560    4.8506    5.0123 C   0  0  0  0  0  0  0  0  0  0  0  0
   -1.1931    5.7727    5.9817 F   0  0  0  0  0  0  0  0  0  0  0  0
   -0.1070    4.1281    4.6896 C   0  0  0  0  0  0  0  0  0  0  0  0
    2.2306    2.3892    3.8975 C   0  0  0  0  0  0  0  0  0  0  0  0
    3.0239    1.5636    3.2496 N   0  0  0  0  0  0  0  0  0  0  0  0
    2.9565   -0.8444   -0.8046 C   0  0  0  0  0  0  0  0  0  0  0  0
    2.7588   -1.0994   -2.1490 C   0  0  0  0  0  0  0  0  0  0  0  0
    3.7050   -2.0681   -2.5302 C   0  0  0  0  0  0  0  0  0  0  0  0
    4.4279   -2.3739   -1.3970 C   0  0  0  0  0  0  0  0  0  0  0  0
    5.4520   -3.4198   -1.1291 C   0  0  0  0  0  0  0  0  0  0  0  0
    6.7316   -2.8996   -1.4881 O   0  0  0  0  0  0  0  0  0  0  0  0
    7.7754   -3.7899   -1.4294 C   0  0  0  0  0  0  0  0  0  0  0  0
    7.6928   -5.1227   -1.0143 C   0  0  0  0  0  0  0  0  0  0  0  0
    8.8311   -5.9352   -1.0100 C   0  0  0  0  0  0  0  0  0  0  0  0
   10.0605   -5.4218   -1.4150 C   0  0  0  0  0  0  0  0  0  0  0  0
   10.1533   -4.0933   -1.8234 C   0  0  0  0  0  0  0  0  0  0  0  0
    9.0147   -3.2823   -1.8300 C   0  0  0  0  0  0  0  0  0  0  0  0
    4.0014   -1.6054   -0.3416 O   0  0  0  0  0  0  0  0  0  0  0  0
    3.7368   -0.0017    1.4514 H   0  0  0  0  0  0  0  0  0  0  0  0
   -1.4534    2.2275    2.1832 H   0  0  0  0  0  0  0  0  0  0  0  0
   -3.3426    5.2030    4.6179 H   0  0  0  0  0  0  0  0  0  0  0  0
    0.7976    4.3548    5.2431 H   0  0  0  0  0  0  0  0  0  0  0  0
    2.4952    2.9633    4.7728 H   0  0  0  0  0  0  0  0  0  0  0  0
    1.9893   -0.6435   -2.7579 H   0  0  0  0  0  0  0  0  0  0  0  0
    3.8163   -2.5317   -3.5015 H   0  0  0  0  0  0  0  0  0  0  0  0
    5.2106   -4.2906   -1.7521 H   0  0  0  0  0  0  0  0  0  0  0  0
    5.4349   -3.7009   -0.0705 H   0  0  0  0  0  0  0  0  0  0  0  0
    6.7605   -5.5690   -0.6859 H   0  0  0  0  0  0  0  0  0  0  0  0
    8.7553   -6.9712   -0.6887 H   0  0  0  0  0  0  0  0  0  0  0  0
   10.9434   -6.0558   -1.4107 H   0  0  0  0  0  0  0  0  0  0  0  0
   11.1116   -3.6880   -2.1376 H   0  0  0  0  0  0  0  0  0  0  0  0
    9.0965   -2.2469   -2.1519 H   0  0  0  0  0  0  0  0  0  0  0  0
  1  2  2  0  0  0  0
  2  3  1  0  0  0  0
  2 17  1  0  0  0  0
  3  4  1  0  0  0  0
  3 30  1  0  0  0  0
  4  5  2  0  0  0  0
  4 16  1  0  0  0  0
  5  6  1  0  0  0  0
  6  7  1  0  0  0  0
  6 15  1  0  0  0  0
  7  8  2  0  0  0  0
  7 14  1  0  0  0  0
  8  9  1  0  0  0  0
  8 31  1  0  0  0  0
  9 10  1  0  0  0  0
  9 11  2  0  0  0  0
 11 12  1  0  0  0  0
 11 32  1  0  0  0  0
 12 13  1  0  0  0  0
 12 14  2  0  0  0  0
 14 33  1  0  0  0  0
 15 16  2  0  0  0  0
 15 34  1  0  0  0  0
 17 18  2  0  0  0  0
 17 29  1  0  0  0  0
 18 19  1  0  0  0  0
 18 35  1  0  0  0  0
 19 20  2  0  0  0  0
 19 36  1  0  0  0  0
 20 21  1  0  0  0  0
 20 29  1  0  0  0  0
 21 22  1  0  0  0  0
 21 37  1  0  0  0  0
 21 38  1  0  0  0  0
 22 23  1  0  0  0  0
 23 24  2  0  0  0  0
 23 28  1  0  0  0  0
 24 25  1  0  0  0  0
 24 39  1  0  0  0  0
 25 26  2  0  0  0  0
 25 40  1  0  0  0  0
 26 27  1  0  0  0  0
 26 41  1  0  0  0  0
 27 28  2  0  0  0  0
 27 42  1  0  0  0  0
 28 43  1  0  0  0  0
M  END
$$$$
