
 OpenBabel01122422463D

 42 45  0  0  0  0  0  0  0  0999 V2000
    4.8275    0.2234   -3.1832 O   0  0  0  0  0  0  0  0  0  0  0  0
    4.1125    0.6387   -2.2882 C   0  0  0  0  0  0  0  0  0  0  0  0
    2.8806    0.1497   -2.0346 O   0  0  0  0  0  0  0  0  0  0  0  0
    4.5197    1.7316   -1.3901 C   0  0  0  0  0  0  0  0  0  0  0  0
    5.3725    2.7110   -1.8610 C   0  0  0  0  0  0  0  0  0  0  0  0
    5.8446    3.7254   -1.0962 N   0  0  0  0  0  0  0  0  0  0  0  0
    5.5091    3.7801    0.1974 C   0  0  0  0  0  0  0  0  0  0  0  0
    6.0172    4.7522    0.9474 N   0  0  0  0  0  0  0  0  0  0  0  0
    5.7393    4.8223    2.2597 C   0  0  0  0  0  0  0  0  0  0  0  0
    6.3104    5.8376    3.0475 N   0  0  0  0  0  0  0  0  0  0  0  0
    7.1995    6.7845    2.5670 C   0  0  0  0  0  0  0  0  0  0  0  0
    7.6668    6.8600    1.4372 O   0  0  0  0  0  0  0  0  0  0  0  0
    7.6387    7.8223    3.5378 C   0  0  0  0  0  0  0  0  0  0  0  0
    8.9107    8.4025    3.3702 C   0  0  0  0  0  0  0  0  0  0  0  0
    9.3521    9.4690    4.1785 C   0  0  0  0  0  0  0  0  0  0  0  0
   10.6709   10.1081    3.9939 C   0  0  0  0  0  0  0  0  0  0  0  0
   11.3177   10.1746    2.7581 C   0  0  0  0  0  0  0  0  0  0  0  0
   12.5537   10.8110    2.6641 C   0  0  0  0  0  0  0  0  0  0  0  0
   13.1207   11.3682    3.8010 C   0  0  0  0  0  0  0  0  0  0  0  0
   12.4227   11.2672    4.9901 C   0  0  0  0  0  0  0  0  0  0  0  0
   11.2203   10.6588    5.1087 N   0  0  0  0  0  0  0  0  0  0  0  0
    8.4703    9.9257    5.1712 C   0  0  0  0  0  0  0  0  0  0  0  0
    7.2151    9.3457    5.3375 C   0  0  0  0  0  0  0  0  0  0  0  0
    6.3858    9.8266    6.2724 F   0  0  0  0  0  0  0  0  0  0  0  0
    6.7883    8.2993    4.5339 C   0  0  0  0  0  0  0  0  0  0  0  0
    4.8903    3.9167    2.8795 C   0  0  0  0  0  0  0  0  0  0  0  0
    4.3322    2.9012    2.1155 C   0  0  0  0  0  0  0  0  0  0  0  0
    4.6504    2.8190    0.7547 C   0  0  0  0  0  0  0  0  0  0  0  0
    4.1506    1.7831   -0.0524 C   0  0  0  0  0  0  0  0  0  0  0  0
    2.3293    0.6750   -1.4269 H   0  0  0  0  0  0  0  0  0  0  0  0
    5.7223    2.7190   -2.8914 H   0  0  0  0  0  0  0  0  0  0  0  0
    6.0850    5.8341    4.0305 H   0  0  0  0  0  0  0  0  0  0  0  0
    9.5542    8.0101    2.5824 H   0  0  0  0  0  0  0  0  0  0  0  0
   10.8683    9.7573    1.8629 H   0  0  0  0  0  0  0  0  0  0  0  0
   13.0627   10.8732    1.7061 H   0  0  0  0  0  0  0  0  0  0  0  0
   14.0795   11.8718    3.7603 H   0  0  0  0  0  0  0  0  0  0  0  0
   12.8210   11.6869    5.9093 H   0  0  0  0  0  0  0  0  0  0  0  0
    8.7474   10.7609    5.8122 H   0  0  0  0  0  0  0  0  0  0  0  0
    5.7821    7.9208    4.6680 H   0  0  0  0  0  0  0  0  0  0  0  0
    4.6596    3.9777    3.9396 H   0  0  0  0  0  0  0  0  0  0  0  0
    3.6703    2.1766    2.5800 H   0  0  0  0  0  0  0  0  0  0  0  0
    3.5246    1.0126    0.3866 H   0  0  0  0  0  0  0  0  0  0  0  0
  1  2  2  0  0  0  0
  2  3  1  0  0  0  0
  2  4  1  0  0  0  0
  3 30  1  0  0  0  0
  4  5  2  0  0  0  0
  4 29  1  0  0  0  0
  5  6  1  0  0  0  0
  5 31  1  0  0  0  0
  6  7  2  0  0  0  0
  7  8  1  0  0  0  0
  7 28  1  0  0  0  0
  8  9  2  0  0  0  0
  9 10  1  0  0  0  0
  9 26  1  0  0  0  0
 10 11  1  0  0  0  0
 10 32  1  0  0  0  0
 11 12  2  0  0  0  0
 11 13  1  0  0  0  0
 13 14  2  0  0  0  0
 13 25  1  0  0  0  0
 14 15  1  0  0  0  0
 14 33  1  0  0  0  0
 15 16  1  0  0  0  0
 15 22  2  0  0  0  0
 16 17  2  0  0  0  0
 16 21  1  0  0  0  0
 17 18  1  0  0  0  0
 17 34  1  0  0  0  0
 18 19  2  0  0  0  0
 18 35  1  0  0  0  0
 19 20  1  0  0  0  0
 19 36  1  0  0  0  0
 20 21  2  0  0  0  0
 20 37  1  0  0  0  0
 22 23  1  0  0  0  0
 22 38  1  0  0  0  0
 23 24  1  0  0  0  0
 23 25  2  0  0  0  0
 25 39  1  0  0  0  0
 26 27  2  0  0  0  0
 26 40  1  0  0  0  0
 27 28  1  0  0  0  0
 27 41  1  0  0  0  0
 28 29  2  0  0  0  0
 29 42  1  0  0  0  0
M  END
$$$$
