
 OpenBabel01122422523D

 41 44  0  0  0  0  0  0  0  0999 V2000
    1.0226    0.0672    0.0233 O   0  0  0  0  0  0  0  0  0  0  0  0
    2.2418    0.0570   -0.0889 C   0  0  0  0  0  0  0  0  0  0  0  0
    2.9670   -0.6613   -1.0338 N   0  0  0  0  0  0  0  0  0  0  0  0
    2.4090   -1.4259   -2.0553 C   0  0  0  0  0  0  0  0  0  0  0  0
    1.1707   -1.1981   -2.5285 C   0  0  0  0  0  0  0  0  0  0  0  0
    0.5519   -2.0062   -3.6042 C   0  0  0  0  0  0  0  0  0  0  0  0
   -0.5787   -1.7657   -4.0132 O   0  0  0  0  0  0  0  0  0  0  0  0
    1.3035   -3.0224   -4.1111 N   0  0  0  0  0  0  0  0  0  0  0  0
    2.5999   -3.3142   -3.6742 C   0  0  0  0  0  0  0  0  0  0  0  0
    3.2734   -4.3868   -4.2524 C   0  0  0  0  0  0  0  0  0  0  0  0
    4.5441   -4.6677   -3.7928 C   0  0  0  0  0  0  0  0  0  0  0  0
    5.1532   -3.9644   -2.8170 N   0  0  0  0  0  0  0  0  0  0  0  0
    4.4612   -2.9296   -2.2753 C   0  0  0  0  0  0  0  0  0  0  0  0
    3.1846   -2.5375   -2.6628 C   0  0  0  0  0  0  0  0  0  0  0  0
    3.0142    0.8055    0.9235 C   0  0  0  0  0  0  0  0  0  0  0  0
    2.5547    0.8429    2.2444 C   0  0  0  0  0  0  0  0  0  0  0  0
    3.2389    1.5992    3.1933 C   0  0  0  0  0  0  0  0  0  0  0  0
    4.3670    2.2892    2.7824 C   0  0  0  0  0  0  0  0  0  0  0  0
    5.0535    3.0059    3.7572 O   0  0  0  0  0  0  0  0  0  0  0  0
    6.4035    3.1901    3.5561 C   0  0  0  0  0  0  0  0  0  0  0  0
    6.9396    4.4372    3.8859 C   0  0  0  0  0  0  0  0  0  0  0  0
    8.2937    4.6886    3.6544 C   0  0  0  0  0  0  0  0  0  0  0  0
    9.0954    3.6904    3.1074 C   0  0  0  0  0  0  0  0  0  0  0  0
   10.3837    3.9459    2.8458 F   0  0  0  0  0  0  0  0  0  0  0  0
    8.5819    2.4312    2.8264 C   0  0  0  0  0  0  0  0  0  0  0  0
    7.2377    2.1715    3.0781 C   0  0  0  0  0  0  0  0  0  0  0  0
    4.8144    2.2957    1.4995 N   0  0  0  0  0  0  0  0  0  0  0  0
    4.1312    1.5543    0.5978 C   0  0  0  0  0  0  0  0  0  0  0  0
    3.9591   -0.7597   -0.8646 H   0  0  0  0  0  0  0  0  0  0  0  0
    0.5313   -0.3983   -2.1767 H   0  0  0  0  0  0  0  0  0  0  0  0
    0.8582   -3.5757   -4.8329 H   0  0  0  0  0  0  0  0  0  0  0  0
    2.8267   -4.9934   -5.0309 H   0  0  0  0  0  0  0  0  0  0  0  0
    5.1200   -5.4921   -4.2035 H   0  0  0  0  0  0  0  0  0  0  0  0
    5.0057   -2.4341   -1.4794 H   0  0  0  0  0  0  0  0  0  0  0  0
    1.6625    0.2890    2.5301 H   0  0  0  0  0  0  0  0  0  0  0  0
    2.9045    1.6405    4.2239 H   0  0  0  0  0  0  0  0  0  0  0  0
    6.3055    5.2169    4.2989 H   0  0  0  0  0  0  0  0  0  0  0  0
    8.7260    5.6575    3.8812 H   0  0  0  0  0  0  0  0  0  0  0  0
    9.2200    1.6649    2.4008 H   0  0  0  0  0  0  0  0  0  0  0  0
    6.8368    1.1863    2.8593 H   0  0  0  0  0  0  0  0  0  0  0  0
    4.5177    1.6114   -0.4154 H   0  0  0  0  0  0  0  0  0  0  0  0
  1  2  2  0  0  0  0
  2  3  1  0  0  0  0
  2 15  1  0  0  0  0
  3  4  1  0  0  0  0
  3 29  1  0  0  0  0
  4  5  2  0  0  0  0
  4 14  1  0  0  0  0
  5  6  1  0  0  0  0
  5 30  1  0  0  0  0
  6  7  2  0  0  0  0
  6  8  1  0  0  0  0
  8  9  1  0  0  0  0
  8 31  1  0  0  0  0
  9 10  2  0  0  0  0
  9 14  1  0  0  0  0
 10 11  1  0  0  0  0
 10 32  1  0  0  0  0
 11 12  2  0  0  0  0
 11 33  1  0  0  0  0
 12 13  1  0  0  0  0
 13 14  2  0  0  0  0
 13 34  1  0  0  0  0
 15 16  2  0  0  0  0
 15 28  1  0  0  0  0
 16 17  1  0  0  0  0
 16 35  1  0  0  0  0
 17 18  2  0  0  0  0
 17 36  1  0  0  0  0
 18 19  1  0  0  0  0
 18 27  1  0  0  0  0
 19 20  1  0  0  0  0
 20 21  2  0  0  0  0
 20 26  1  0  0  0  0
 21 22  1  0  0  0  0
 21 37  1  0  0  0  0
 22 23  2  0  0  0  0
 22 38  1  0  0  0  0
 23 24  1  0  0  0  0
 23 25  1  0  0  0  0
 25 26  2  0  0  0  0
 25 39  1  0  0  0  0
 26 40  1  0  0  0  0
 27 28  2  0  0  0  0
 28 41  1  0  0  0  0
M  END
$$$$
