
 OpenBabel01122422523D

 51 54  0  0  1  0  0  0  0  0999 V2000
    0.9492    0.0160   -4.4773 C   0  0  0  0  0  0  0  0  0  0  0  0
    2.2052   -0.6472   -4.3958 O   0  0  0  0  0  0  0  0  0  0  0  0
    3.0215   -0.3110   -3.3495 C   0  0  0  0  0  0  0  0  0  0  0  0
    2.6887    0.5274   -2.2864 C   0  0  0  0  0  0  0  0  0  0  0  0
    3.6276    0.7879   -1.2841 C   0  0  0  0  0  0  0  0  0  0  0  0
    4.9012    0.2214   -1.3432 C   0  0  0  0  0  0  0  0  0  0  0  0
    5.2546   -0.6207   -2.4027 C   0  0  0  0  0  0  0  0  0  0  0  0
    6.6501   -1.2122   -2.4696 C   0  0  0  0  0  0  0  0  0  0  0  0
    7.4211   -0.8375   -3.7539 C   0  0  3  0  0  0  0  0  0  0  0  0
    7.4989    0.5923   -4.0299 N   0  0  0  0  0  0  0  0  0  0  0  0
    7.9236    1.5526   -3.1370 C   0  0  0  0  0  0  0  0  0  0  0  0
    8.1098    1.4055   -1.9391 O   0  0  0  0  0  0  0  0  0  0  0  0
    8.4530    2.8015   -3.8229 C   0  0  0  0  0  0  0  0  0  0  0  0
    8.7586    2.6383   -5.0879 N   0  0  0  0  0  0  0  0  0  0  0  0
   10.1211    2.8898   -5.3448 C   0  0  0  0  0  0  0  0  0  0  0  0
   10.7127    2.1551   -6.3707 C   0  0  0  0  0  0  0  0  0  0  0  0
   12.0987    2.0267   -6.4216 C   0  0  0  0  0  0  0  0  0  0  0  0
   12.8989    2.6942   -5.4903 C   0  0  0  0  0  0  0  0  0  0  0  0
   12.3248    3.5233   -4.5253 C   0  0  0  0  0  0  0  0  0  0  0  0
   10.9398    3.5871   -4.4334 C   0  0  0  0  0  0  0  0  0  0  0  0
   10.3316    4.2525   -3.3548 N   0  0  0  0  0  0  0  0  0  0  0  0
    9.0243    3.9553   -3.0262 C   0  0  0  0  0  0  0  0  0  0  0  0
    8.3885    4.5456   -2.1775 O   0  0  0  0  0  0  0  0  0  0  0  0
    8.7872   -1.5156   -3.8667 C   0  0  0  0  0  0  0  0  0  0  0  0
    9.0002   -2.4942   -4.8559 C   0  0  0  0  0  0  0  0  0  0  0  0
   10.2497   -3.1028   -5.0179 C   0  0  0  0  0  0  0  0  0  0  0  0
   11.3174   -2.7397   -4.2008 C   0  0  0  0  0  0  0  0  0  0  0  0
   11.1195   -1.7902   -3.1983 C   0  0  0  0  0  0  0  0  0  0  0  0
    9.8631   -1.1964   -3.0212 C   0  0  0  0  0  0  0  0  0  0  0  0
    4.2949   -0.8912   -3.3922 C   0  0  0  0  0  0  0  0  0  0  0  0
    0.4448   -0.3381   -5.3823 H   0  0  0  0  0  0  0  0  0  0  0  0
    1.0766    1.0997   -4.5713 H   0  0  0  0  0  0  0  0  0  0  0  0
    0.3112   -0.2351   -3.6239 H   0  0  0  0  0  0  0  0  0  0  0  0
    1.7127    0.9917   -2.2055 H   0  0  0  0  0  0  0  0  0  0  0  0
    3.3689    1.4408   -0.4548 H   0  0  0  0  0  0  0  0  0  0  0  0
    5.6233    0.4535   -0.5620 H   0  0  0  0  0  0  0  0  0  0  0  0
    6.5554   -2.3038   -2.4043 H   0  0  0  0  0  0  0  0  0  0  0  0
    7.2217   -0.9174   -1.5814 H   0  0  0  0  0  0  0  0  0  0  0  0
    6.8299   -1.2091   -4.5999 H   0  0  0  0  0  0  0  0  0  0  0  0
    7.6060    0.8631   -5.0044 H   0  0  0  0  0  0  0  0  0  0  0  0
   10.0872    1.5942   -7.0609 H   0  0  0  0  0  0  0  0  0  0  0  0
   12.5481    1.3585   -7.1516 H   0  0  0  0  0  0  0  0  0  0  0  0
   13.9737    2.5330   -5.4949 H   0  0  0  0  0  0  0  0  0  0  0  0
   12.9580    4.0160   -3.7937 H   0  0  0  0  0  0  0  0  0  0  0  0
   10.8461    4.8793   -2.7510 H   0  0  0  0  0  0  0  0  0  0  0  0
    8.1883   -2.7986   -5.5131 H   0  0  0  0  0  0  0  0  0  0  0  0
   10.3921   -3.8577   -5.7860 H   0  0  0  0  0  0  0  0  0  0  0  0
   12.2931   -3.1901   -4.3409 H   0  0  0  0  0  0  0  0  0  0  0  0
   11.9467   -1.5113   -2.5488 H   0  0  0  0  0  0  0  0  0  0  0  0
    9.7427   -0.4766   -2.2154 H   0  0  0  0  0  0  0  0  0  0  0  0
    4.5342   -1.5521   -4.2214 H   0  0  0  0  0  0  0  0  0  0  0  0
  1  2  1  0  0  0  0
  1 31  1  0  0  0  0
  1 32  1  0  0  0  0
  1 33  1  0  0  0  0
  2  3  1  0  0  0  0
  3  4  2  0  0  0  0
  3 30  1  0  0  0  0
  4  5  1  0  0  0  0
  4 34  1  0  0  0  0
  5  6  2  0  0  0  0
  5 35  1  0  0  0  0
  6  7  1  0  0  0  0
  6 36  1  0  0  0  0
  7  8  1  0  0  0  0
  7 30  2  0  0  0  0
  8  9  1  0  0  0  0
  8 37  1  0  0  0  0
  8 38  1  0  0  0  0
  9 10  1  0  0  0  0
  9 24  1  0  0  0  0
  9 39  1  0  0  0  0
 10 11  1  0  0  0  0
 10 40  1  0  0  0  0
 11 12  2  0  0  0  0
 11 13  1  0  0  0  0
 13 14  2  0  0  0  0
 13 22  1  0  0  0  0
 14 15  1  0  0  0  0
 15 16  2  0  0  0  0
 15 20  1  0  0  0  0
 16 17  1  0  0  0  0
 16 41  1  0  0  0  0
 17 18  2  0  0  0  0
 17 42  1  0  0  0  0
 18 19  1  0  0  0  0
 18 43  1  0  0  0  0
 19 20  2  0  0  0  0
 19 44  1  0  0  0  0
 20 21  1  0  0  0  0
 21 22  1  0  0  0  0
 21 45  1  0  0  0  0
 22 23  2  0  0  0  0
 24 25  2  0  0  0  0
 24 29  1  0  0  0  0
 25 26  1  0  0  0  0
 25 46  1  0  0  0  0
 26 27  2  0  0  0  0
 26 47  1  0  0  0  0
 27 28  1  0  0  0  0
 27 48  1  0  0  0  0
 28 29  2  0  0  0  0
 28 49  1  0  0  0  0
 29 50  1  0  0  0  0
 30 51  1  0  0  0  0
M  END
$$$$
