
 OpenBabel01122422523D

 41 44  0  0  0  0  0  0  0  0999 V2000
    1.3192   -0.8993    0.5559 O   0  0  0  0  0  0  0  0  0  0  0  0
    1.9350   -0.2247   -0.2589 C   0  0  0  0  0  0  0  0  0  0  0  0
    1.9791    1.1595   -0.2967 N   0  0  0  0  0  0  0  0  0  0  0  0
    1.3414    2.0371    0.5543 C   0  0  0  0  0  0  0  0  0  0  0  0
    0.4077    1.7374    1.4477 C   0  0  0  0  0  0  0  0  0  0  0  0
   -0.1937    2.7556    2.3338 C   0  0  0  0  0  0  0  0  0  0  0  0
   -1.0338    2.3442    3.1276 O   0  0  0  0  0  0  0  0  0  0  0  0
    0.2675    4.0662    2.1689 N   0  0  0  0  0  0  0  0  0  0  0  0
   -0.2686    5.2110    2.8659 C   0  0  0  0  0  0  0  0  0  0  0  0
   -1.3357    5.1179    3.7718 C   0  0  0  0  0  0  0  0  0  0  0  0
   -1.9105    6.2579    4.3447 C   0  0  0  0  0  0  0  0  0  0  0  0
   -1.4187    7.5219    4.0388 C   0  0  0  0  0  0  0  0  0  0  0  0
   -0.3283    7.6421    3.1859 C   0  0  0  0  0  0  0  0  0  0  0  0
    0.2431    6.5009    2.6145 C   0  0  0  0  0  0  0  0  0  0  0  0
    1.2488    4.4046    1.2448 N   0  0  0  0  0  0  0  0  0  0  0  0
    1.7265    3.4585    0.5053 C   0  0  0  0  0  0  0  0  0  0  0  0
    2.9029   -0.8014   -1.1651 C   0  0  0  0  0  0  0  0  0  0  0  0
    3.8956   -1.6780   -0.7800 C   0  0  0  0  0  0  0  0  0  0  0  0
    4.1799   -2.4325    0.3916 C   0  0  0  0  0  0  0  0  0  0  0  0
    5.4602   -2.5457    0.7888 C   0  0  0  0  0  0  0  0  0  0  0  0
    6.5387   -1.9394    0.0219 C   0  0  0  0  0  0  0  0  0  0  0  0
    6.2702   -1.4564   -1.2045 C   0  0  0  0  0  0  0  0  0  0  0  0
    4.9477   -1.3933   -1.6477 N   0  0  0  0  0  0  0  0  0  0  0  0
    4.4699   -0.8894   -2.8151 N   0  0  0  0  0  0  0  0  0  0  0  0
    3.2162   -0.4843   -2.5177 C   0  0  0  0  0  0  0  0  0  0  0  0
    2.3764    0.3008   -3.4904 C   0  0  0  0  0  0  0  0  0  0  0  0
    1.2463    0.7858   -2.9075 F   0  0  0  0  0  0  0  0  0  0  0  0
    3.0406    1.3892   -3.9621 F   0  0  0  0  0  0  0  0  0  0  0  0
    1.9768   -0.4301   -4.5594 F   0  0  0  0  0  0  0  0  0  0  0  0
    2.6564    1.5846   -0.9209 H   0  0  0  0  0  0  0  0  0  0  0  0
    0.0105    0.7424    1.5909 H   0  0  0  0  0  0  0  0  0  0  0  0
   -1.7754    4.1665    4.0495 H   0  0  0  0  0  0  0  0  0  0  0  0
   -2.7574    6.1486    5.0176 H   0  0  0  0  0  0  0  0  0  0  0  0
   -1.8838    8.4049    4.4623 H   0  0  0  0  0  0  0  0  0  0  0  0
    0.0738    8.6234    2.9487 H   0  0  0  0  0  0  0  0  0  0  0  0
    1.0914    6.6408    1.9494 H   0  0  0  0  0  0  0  0  0  0  0  0
    2.4998    3.7282   -0.2313 H   0  0  0  0  0  0  0  0  0  0  0  0
    3.3678   -2.9025    0.9421 H   0  0  0  0  0  0  0  0  0  0  0  0
    5.7156   -3.1103    1.6809 H   0  0  0  0  0  0  0  0  0  0  0  0
    7.5325   -1.9054    0.4526 H   0  0  0  0  0  0  0  0  0  0  0  0
    7.0111   -1.0122   -1.8541 H   0  0  0  0  0  0  0  0  0  0  0  0
  1  2  2  0  0  0  0
  2  3  1  0  0  0  0
  2 17  1  0  0  0  0
  3  4  1  0  0  0  0
  3 30  1  0  0  0  0
  4  5  2  0  0  0  0
  4 16  1  0  0  0  0
  5  6  1  0  0  0  0
  5 31  1  0  0  0  0
  6  7  2  0  0  0  0
  6  8  1  0  0  0  0
  8  9  1  0  0  0  0
  8 15  1  0  0  0  0
  9 10  2  0  0  0  0
  9 14  1  0  0  0  0
 10 11  1  0  0  0  0
 10 32  1  0  0  0  0
 11 12  2  0  0  0  0
 11 33  1  0  0  0  0
 12 13  1  0  0  0  0
 12 34  1  0  0  0  0
 13 14  2  0  0  0  0
 13 35  1  0  0  0  0
 14 36  1  0  0  0  0
 15 16  2  0  0  0  0
 16 37  1  0  0  0  0
 17 18  2  0  0  0  0
 17 25  1  0  0  0  0
 18 19  1  0  0  0  0
 18 23  1  0  0  0  0
 19 20  2  0  0  0  0
 19 38  1  0  0  0  0
 20 21  1  0  0  0  0
 20 39  1  0  0  0  0
 21 22  2  0  0  0  0
 21 40  1  0  0  0  0
 22 23  1  0  0  0  0
 22 41  1  0  0  0  0
 23 24  1  0  0  0  0
 24 25  2  0  0  0  0
 25 26  1  0  0  0  0
 26 27  1  0  0  0  0
 26 28  1  0  0  0  0
 26 29  1  0  0  0  0
M  END
$$$$
