
 OpenBabel01122422523D

 48 51  0  0  0  0  0  0  0  0999 V2000
    1.0686   -1.0166    0.1701 O   0  0  0  0  0  0  0  0  0  0  0  0
    2.1811   -0.4927    0.1226 C   0  0  0  0  0  0  0  0  0  0  0  0
    2.7783    0.2485    1.1289 N   0  0  0  0  0  0  0  0  0  0  0  0
    2.2420    0.4527    2.4248 C   0  0  0  0  0  0  0  0  0  0  0  0
    1.1776   -0.3319    2.8959 C   0  0  0  0  0  0  0  0  0  0  0  0
    0.6174   -0.1329    4.1570 C   0  0  0  0  0  0  0  0  0  0  0  0
    1.1377    0.8373    4.9950 C   0  0  0  0  0  0  0  0  0  0  0  0
    2.1991    1.6234    4.5588 C   0  0  0  0  0  0  0  0  0  0  0  0
    2.7500    1.4630    3.2681 C   0  0  0  0  0  0  0  0  0  0  0  0
    3.7720    2.4936    2.8399 C   0  0  0  0  0  0  0  0  0  0  0  0
    3.3820    3.1997    1.6590 O   0  0  0  0  0  0  0  0  0  0  0  0
    2.1675    3.9375    1.8400 C   0  0  0  0  0  0  0  0  0  0  0  0
    1.8177    4.6701    0.5711 C   0  0  0  0  0  0  0  0  0  0  0  0
    1.6441    3.9682   -0.6309 C   0  0  0  0  0  0  0  0  0  0  0  0
    1.3030    4.6429   -1.8034 C   0  0  0  0  0  0  0  0  0  0  0  0
    1.1225    6.0250   -1.7863 C   0  0  0  0  0  0  0  0  0  0  0  0
    1.2610    6.7284   -0.5920 C   0  0  0  0  0  0  0  0  0  0  0  0
    1.6062    6.0560    0.5817 C   0  0  0  0  0  0  0  0  0  0  0  0
    2.9930   -0.6010   -1.1447 C   0  0  0  0  0  0  0  0  0  0  0  0
    2.3602   -1.2059   -2.1567 C   0  0  0  0  0  0  0  0  0  0  0  0
    3.0737   -1.3874   -3.4211 C   0  0  0  0  0  0  0  0  0  0  0  0
    2.4793   -1.8977   -4.3695 O   0  0  0  0  0  0  0  0  0  0  0  0
    4.3878   -0.9484   -3.4304 N   0  0  0  0  0  0  0  0  0  0  0  0
    5.1367   -1.0998   -4.5916 C   0  0  0  0  0  0  0  0  0  0  0  0
    6.4014   -0.6711   -4.6741 C   0  0  0  0  0  0  0  0  0  0  0  0
    7.0260   -0.0504   -3.5380 C   0  0  0  0  0  0  0  0  0  0  0  0
    6.3404    0.1186   -2.3948 C   0  0  0  0  0  0  0  0  0  0  0  0
    4.9261   -0.3360   -2.3003 C   0  0  0  0  0  0  0  0  0  0  0  0
    4.2817   -0.1386   -1.1877 N   0  0  0  0  0  0  0  0  0  0  0  0
    3.6149    0.7590    0.8646 H   0  0  0  0  0  0  0  0  0  0  0  0
    0.7434   -1.1262    2.2983 H   0  0  0  0  0  0  0  0  0  0  0  0
   -0.2243   -0.7444    4.4693 H   0  0  0  0  0  0  0  0  0  0  0  0
    0.7086    0.9921    5.9804 H   0  0  0  0  0  0  0  0  0  0  0  0
    2.5735    2.3995    5.2232 H   0  0  0  0  0  0  0  0  0  0  0  0
    4.7361    2.0088    2.6524 H   0  0  0  0  0  0  0  0  0  0  0  0
    3.9458    3.2269    3.6396 H   0  0  0  0  0  0  0  0  0  0  0  0
    2.2845    4.6421    2.6718 H   0  0  0  0  0  0  0  0  0  0  0  0
    1.3394    3.2601    2.0752 H   0  0  0  0  0  0  0  0  0  0  0  0
    1.7716    2.8871   -0.6515 H   0  0  0  0  0  0  0  0  0  0  0  0
    1.1725    4.0900   -2.7299 H   0  0  0  0  0  0  0  0  0  0  0  0
    0.8657    6.5527   -2.7007 H   0  0  0  0  0  0  0  0  0  0  0  0
    1.0945    7.8023   -0.5728 H   0  0  0  0  0  0  0  0  0  0  0  0
    1.7032    6.6222    1.5050 H   0  0  0  0  0  0  0  0  0  0  0  0
    1.3439   -1.5786   -2.1089 H   0  0  0  0  0  0  0  0  0  0  0  0
    4.6463   -1.5728   -5.4393 H   0  0  0  0  0  0  0  0  0  0  0  0
    6.9715   -0.7789   -5.5916 H   0  0  0  0  0  0  0  0  0  0  0  0
    8.0570    0.2715   -3.6234 H   0  0  0  0  0  0  0  0  0  0  0  0
    6.7791    0.5753   -1.5202 H   0  0  0  0  0  0  0  0  0  0  0  0
  1  2  2  0  0  0  0
  2  3  1  0  0  0  0
  2 19  1  0  0  0  0
  3  4  1  0  0  0  0
  3 30  1  0  0  0  0
  4  5  2  0  0  0  0
  4  9  1  0  0  0  0
  5  6  1  0  0  0  0
  5 31  1  0  0  0  0
  6  7  2  0  0  0  0
  6 32  1  0  0  0  0
  7  8  1  0  0  0  0
  7 33  1  0  0  0  0
  8  9  2  0  0  0  0
  8 34  1  0  0  0  0
  9 10  1  0  0  0  0
 10 11  1  0  0  0  0
 10 35  1  0  0  0  0
 10 36  1  0  0  0  0
 11 12  1  0  0  0  0
 12 13  1  0  0  0  0
 12 37  1  0  0  0  0
 12 38  1  0  0  0  0
 13 14  2  0  0  0  0
 13 18  1  0  0  0  0
 14 15  1  0  0  0  0
 14 39  1  0  0  0  0
 15 16  2  0  0  0  0
 15 40  1  0  0  0  0
 16 17  1  0  0  0  0
 16 41  1  0  0  0  0
 17 18  2  0  0  0  0
 17 42  1  0  0  0  0
 18 43  1  0  0  0  0
 19 20  2  0  0  0  0
 19 29  1  0  0  0  0
 20 21  1  0  0  0  0
 20 44  1  0  0  0  0
 21 22  2  0  0  0  0
 21 23  1  0  0  0  0
 23 24  1  0  0  0  0
 23 28  1  0  0  0  0
 24 25  2  0  0  0  0
 24 45  1  0  0  0  0
 25 26  1  0  0  0  0
 25 46  1  0  0  0  0
 26 27  2  0  0  0  0
 26 47  1  0  0  0  0
 27 28  1  0  0  0  0
 27 48  1  0  0  0  0
 28 29  2  0  0  0  0
M  END
$$$$
