
 OpenBabel01122422523D

 47 50  0  0  0  0  0  0  0  0999 V2000
    5.1671   -1.8462    0.4379 O   0  0  0  0  0  0  0  0  0  0  0  0
    4.4349   -0.8798    0.2309 C   0  0  0  0  0  0  0  0  0  0  0  0
    3.0546   -0.9177    0.3531 N   0  0  0  0  0  0  0  0  0  0  0  0
    2.3913   -2.0592    0.8666 C   0  0  0  0  0  0  0  0  0  0  0  0
    1.2409   -2.5219    0.2248 C   0  0  0  0  0  0  0  0  0  0  0  0
    0.6248   -3.7152    0.6427 C   0  0  0  0  0  0  0  0  0  0  0  0
   -0.5064   -4.3115   -0.1467 C   0  0  0  0  0  0  0  0  0  0  0  0
   -1.7789   -3.8112    0.2849 N   0  0  0  0  0  0  0  0  0  0  0  0
   -2.9570   -4.1647   -0.3415 C   0  0  0  0  0  0  0  0  0  0  0  0
   -3.0235   -4.9344   -1.2931 O   0  0  0  0  0  0  0  0  0  0  0  0
   -4.1773   -3.5173    0.2402 C   0  0  0  0  0  0  0  0  0  0  0  0
   -5.4289   -3.8337   -0.2520 C   0  0  0  0  0  0  0  0  0  0  0  0
   -6.5340   -3.1797    0.2935 C   0  0  0  0  0  0  0  0  0  0  0  0
   -6.3378   -2.2447    1.3092 C   0  0  0  0  0  0  0  0  0  0  0  0
   -5.0481   -1.9994    1.7478 C   0  0  0  0  0  0  0  0  0  0  0  0
   -3.9568   -2.6165    1.2433 N   0  0  0  0  0  0  0  0  0  0  0  0
    1.0949   -4.3640    1.7924 C   0  0  0  0  0  0  0  0  0  0  0  0
    2.2083   -3.8719    2.4729 C   0  0  0  0  0  0  0  0  0  0  0  0
    2.8694   -2.7393    1.9939 C   0  0  0  0  0  0  0  0  0  0  0  0
    5.0881    0.4126   -0.1432 C   0  0  0  0  0  0  0  0  0  0  0  0
    6.4481    0.5190    0.2184 C   0  0  0  0  0  0  0  0  0  0  0  0
    7.1336    1.7259    0.1179 C   0  0  0  0  0  0  0  0  0  0  0  0
    6.4736    2.8167   -0.4248 C   0  0  0  0  0  0  0  0  0  0  0  0
    7.1064    4.1304   -0.4531 C   0  0  0  0  0  0  0  0  0  0  0  0
    6.6897    5.1054   -1.1962 N   0  0  0  0  0  0  0  0  0  0  0  0
    5.5664    4.8753   -1.9410 N   0  0  0  0  0  0  0  0  0  0  0  0
    4.7023    3.8075   -1.7829 C   0  0  0  0  0  0  0  0  0  0  0  0
    3.6162    3.7399   -2.3459 O   0  0  0  0  0  0  0  0  0  0  0  0
    5.1946    2.6893   -0.9531 C   0  0  0  0  0  0  0  0  0  0  0  0
    4.4646    1.4990   -0.7732 C   0  0  0  0  0  0  0  0  0  0  0  0
    2.4958   -0.2544   -0.1639 H   0  0  0  0  0  0  0  0  0  0  0  0
    0.8708   -2.0148   -0.6617 H   0  0  0  0  0  0  0  0  0  0  0  0
   -0.5158   -5.4057   -0.0522 H   0  0  0  0  0  0  0  0  0  0  0  0
   -0.3881   -4.0929   -1.2155 H   0  0  0  0  0  0  0  0  0  0  0  0
   -1.8559   -3.1988    1.0959 H   0  0  0  0  0  0  0  0  0  0  0  0
   -5.5507   -4.5583   -1.0542 H   0  0  0  0  0  0  0  0  0  0  0  0
   -7.5343   -3.3953   -0.0712 H   0  0  0  0  0  0  0  0  0  0  0  0
   -7.1781   -1.7170    1.7459 H   0  0  0  0  0  0  0  0  0  0  0  0
   -4.8508   -1.2768    2.5313 H   0  0  0  0  0  0  0  0  0  0  0  0
    0.6099   -5.2702    2.1507 H   0  0  0  0  0  0  0  0  0  0  0  0
    2.5744   -4.3825    3.3585 H   0  0  0  0  0  0  0  0  0  0  0  0
    3.7508   -2.3858    2.5250 H   0  0  0  0  0  0  0  0  0  0  0  0
    6.9752   -0.3493    0.6146 H   0  0  0  0  0  0  0  0  0  0  0  0
    8.1672    1.7916    0.4447 H   0  0  0  0  0  0  0  0  0  0  0  0
    7.9741    4.2983    0.2076 H   0  0  0  0  0  0  0  0  0  0  0  0
    5.2862    5.6272   -2.5642 H   0  0  0  0  0  0  0  0  0  0  0  0
    3.4478    1.4423   -1.1497 H   0  0  0  0  0  0  0  0  0  0  0  0
  1  2  2  0  0  0  0
  2  3  1  0  0  0  0
  2 20  1  0  0  0  0
  3  4  1  0  0  0  0
  3 31  1  0  0  0  0
  4  5  2  0  0  0  0
  4 19  1  0  0  0  0
  5  6  1  0  0  0  0
  5 32  1  0  0  0  0
  6  7  1  0  0  0  0
  6 17  2  0  0  0  0
  7  8  1  0  0  0  0
  7 33  1  0  0  0  0
  7 34  1  0  0  0  0
  8  9  1  0  0  0  0
  8 35  1  0  0  0  0
  9 10  2  0  0  0  0
  9 11  1  0  0  0  0
 11 12  2  0  0  0  0
 11 16  1  0  0  0  0
 12 13  1  0  0  0  0
 12 36  1  0  0  0  0
 13 14  2  0  0  0  0
 13 37  1  0  0  0  0
 14 15  1  0  0  0  0
 14 38  1  0  0  0  0
 15 16  2  0  0  0  0
 15 39  1  0  0  0  0
 17 18  1  0  0  0  0
 17 40  1  0  0  0  0
 18 19  2  0  0  0  0
 18 41  1  0  0  0  0
 19 42  1  0  0  0  0
 20 21  2  0  0  0  0
 20 30  1  0  0  0  0
 21 22  1  0  0  0  0
 21 43  1  0  0  0  0
 22 23  2  0  0  0  0
 22 44  1  0  0  0  0
 23 24  1  0  0  0  0
 23 29  1  0  0  0  0
 24 25  2  0  0  0  0
 24 45  1  0  0  0  0
 25 26  1  0  0  0  0
 26 27  1  0  0  0  0
 26 46  1  0  0  0  0
 27 28  2  0  0  0  0
 27 29  1  0  0  0  0
 29 30  2  0  0  0  0
 30 47  1  0  0  0  0
M  END
$$$$
