
 OpenBabel01122422523D

 43 46  0  0  0  0  0  0  0  0999 V2000
    7.9152   -0.2790    6.7523 N   0  0  0  0  0  0  0  0  0  0  0  0
    7.8798   -0.2527    5.5905 C   0  0  0  0  0  0  0  0  0  0  0  0
    7.8370   -0.2030    4.1679 C   0  0  0  0  0  0  0  0  0  0  0  0
    7.7588   -1.3236    3.4216 C   0  0  0  0  0  0  0  0  0  0  0  0
    7.7179   -1.2303    2.0235 N   0  0  0  0  0  0  0  0  0  0  0  0
    7.6429   -2.2147    1.0417 C   0  0  0  0  0  0  0  0  0  0  0  0
    7.5883   -3.6438    1.2608 C   0  0  0  0  0  0  0  0  0  0  0  0
    7.6100   -4.1594    2.3738 O   0  0  0  0  0  0  0  0  0  0  0  0
    7.5025   -4.4084    0.1202 N   0  0  0  0  0  0  0  0  0  0  0  0
    7.4670   -5.8548    0.1474 C   0  0  0  0  0  0  0  0  0  0  0  0
    8.8446   -6.4758    0.0832 C   0  0  0  0  0  0  0  0  0  0  0  0
    9.5144   -6.7850    1.2605 C   0  0  0  0  0  0  0  0  0  0  0  0
   10.7199   -7.4831    1.1899 C   0  0  0  0  0  0  0  0  0  0  0  0
   11.4149   -7.9391    2.2925 O   0  0  0  0  0  0  0  0  0  0  0  0
   10.7036   -8.2895    3.4216 C   0  0  0  0  0  0  0  0  0  0  0  0
    9.4609   -8.9266    3.3790 C   0  0  0  0  0  0  0  0  0  0  0  0
    8.7515   -9.1163    4.5566 C   0  0  0  0  0  0  0  0  0  0  0  0
    7.5119   -9.6202    4.4998 F   0  0  0  0  0  0  0  0  0  0  0  0
    9.2956   -8.7654    5.7858 C   0  0  0  0  0  0  0  0  0  0  0  0
   10.5815   -8.2279    5.8393 C   0  0  0  0  0  0  0  0  0  0  0  0
   11.2857   -7.9868    4.6556 C   0  0  0  0  0  0  0  0  0  0  0  0
   11.2869   -7.7358   -0.0520 C   0  0  0  0  0  0  0  0  0  0  0  0
   10.5822   -7.3430   -1.1768 C   0  0  0  0  0  0  0  0  0  0  0  0
    9.3725   -6.7356   -1.1398 N   0  0  0  0  0  0  0  0  0  0  0  0
    7.6260   -1.4982   -0.1447 C   0  0  0  0  0  0  0  0  0  0  0  0
    7.6909   -0.1496    0.0571 N   0  0  0  0  0  0  0  0  0  0  0  0
    7.7480   -0.0040    1.3598 C   0  0  0  0  0  0  0  0  0  0  0  0
    7.8327    1.1792    2.1458 C   0  0  0  0  0  0  0  0  0  0  0  0
    7.8780    1.0891    3.4876 C   0  0  0  0  0  0  0  0  0  0  0  0
    7.7237   -2.3125    3.8608 H   0  0  0  0  0  0  0  0  0  0  0  0
    7.5922   -3.9888   -0.7937 H   0  0  0  0  0  0  0  0  0  0  0  0
    6.8870   -6.1771   -0.7249 H   0  0  0  0  0  0  0  0  0  0  0  0
    6.9302   -6.2020    1.0384 H   0  0  0  0  0  0  0  0  0  0  0  0
    9.0671   -6.5195    2.2135 H   0  0  0  0  0  0  0  0  0  0  0  0
    9.0091   -9.2319    2.4416 H   0  0  0  0  0  0  0  0  0  0  0  0
    8.7151   -8.9152    6.6904 H   0  0  0  0  0  0  0  0  0  0  0  0
   11.0253   -7.9769    6.7994 H   0  0  0  0  0  0  0  0  0  0  0  0
   12.2770   -7.5420    4.6978 H   0  0  0  0  0  0  0  0  0  0  0  0
   12.2448   -8.2351   -0.1421 H   0  0  0  0  0  0  0  0  0  0  0  0
   10.9785   -7.5251   -2.1724 H   0  0  0  0  0  0  0  0  0  0  0  0
    7.5699   -1.8838   -1.1553 H   0  0  0  0  0  0  0  0  0  0  0  0
    7.8619    2.1366    1.6369 H   0  0  0  0  0  0  0  0  0  0  0  0
    7.9472    1.9916    4.0909 H   0  0  0  0  0  0  0  0  0  0  0  0
  1  2  3  0  0  0  0
  2  3  1  0  0  0  0
  3  4  2  0  0  0  0
  3 29  1  0  0  0  0
  4  5  1  0  0  0  0
  4 30  1  0  0  0  0
  5  6  1  0  0  0  0
  5 27  1  0  0  0  0
  6  7  1  0  0  0  0
  6 25  2  0  0  0  0
  7  8  2  0  0  0  0
  7  9  1  0  0  0  0
  9 10  1  0  0  0  0
  9 31  1  0  0  0  0
 10 11  1  0  0  0  0
 10 32  1  0  0  0  0
 10 33  1  0  0  0  0
 11 12  2  0  0  0  0
 11 24  1  0  0  0  0
 12 13  1  0  0  0  0
 12 34  1  0  0  0  0
 13 14  1  0  0  0  0
 13 22  2  0  0  0  0
 14 15  1  0  0  0  0
 15 16  2  0  0  0  0
 15 21  1  0  0  0  0
 16 17  1  0  0  0  0
 16 35  1  0  0  0  0
 17 18  1  0  0  0  0
 17 19  2  0  0  0  0
 19 20  1  0  0  0  0
 19 36  1  0  0  0  0
 20 21  2  0  0  0  0
 20 37  1  0  0  0  0
 21 38  1  0  0  0  0
 22 23  1  0  0  0  0
 22 39  1  0  0  0  0
 23 24  2  0  0  0  0
 23 40  1  0  0  0  0
 25 26  1  0  0  0  0
 25 41  1  0  0  0  0
 26 27  2  0  0  0  0
 27 28  1  0  0  0  0
 28 29  2  0  0  0  0
 28 42  1  0  0  0  0
 29 43  1  0  0  0  0
M  END
$$$$
