
 OpenBabel01122422523D

 44 47  0  0  0  0  0  0  0  0999 V2000
    1.0519    0.1940    0.2927 O   0  0  0  0  0  0  0  0  0  0  0  0
    2.2615    0.0983    0.1137 C   0  0  0  0  0  0  0  0  0  0  0  0
    2.8953   -0.8736   -0.6498 N   0  0  0  0  0  0  0  0  0  0  0  0
    2.2461   -1.8578   -1.3784 C   0  0  0  0  0  0  0  0  0  0  0  0
    0.9263   -1.9819   -1.5116 C   0  0  0  0  0  0  0  0  0  0  0  0
    0.2986   -3.0604   -2.2857 C   0  0  0  0  0  0  0  0  0  0  0  0
   -0.9320   -3.0828   -2.2768 O   0  0  0  0  0  0  0  0  0  0  0  0
    1.1680   -3.9616   -2.9094 N   0  0  0  0  0  0  0  0  0  0  0  0
    0.6728   -5.0870   -3.6502 C   0  0  0  0  0  0  0  0  0  0  0  0
   -0.6132   -5.0799   -4.2120 C   0  0  0  0  0  0  0  0  0  0  0  0
   -1.1586   -6.2182   -4.8101 C   0  0  0  0  0  0  0  0  0  0  0  0
   -0.4101   -7.3880   -4.8725 C   0  0  0  0  0  0  0  0  0  0  0  0
    0.8928   -7.4007   -4.3796 C   0  0  0  0  0  0  0  0  0  0  0  0
    1.4392   -6.2519   -3.7894 C   0  0  0  0  0  0  0  0  0  0  0  0
    2.5475   -3.8848   -2.7826 N   0  0  0  0  0  0  0  0  0  0  0  0
    3.0250   -2.8995   -2.0890 C   0  0  0  0  0  0  0  0  0  0  0  0
    3.1130    1.0963    0.7959 C   0  0  0  0  0  0  0  0  0  0  0  0
    2.6519    1.5991    2.0278 C   0  0  0  0  0  0  0  0  0  0  0  0
    3.3321    2.6207    2.7101 C   0  0  0  0  0  0  0  0  0  0  0  0
    2.8492    3.1639    3.9974 C   0  0  0  0  0  0  0  0  0  0  0  0
    1.5004    3.1897    4.3618 C   0  0  0  0  0  0  0  0  0  0  0  0
    1.1357    3.7192    5.5990 C   0  0  0  0  0  0  0  0  0  0  0  0
    2.1192    4.2096    6.4450 C   0  0  0  0  0  0  0  0  0  0  0  0
    3.4314    4.1510    6.0154 C   0  0  0  0  0  0  0  0  0  0  0  0
    3.8131    3.6456    4.8216 N   0  0  0  0  0  0  0  0  0  0  0  0
    4.5037    3.1132    2.1104 C   0  0  0  0  0  0  0  0  0  0  0  0
    4.9533    2.6141    0.8885 C   0  0  0  0  0  0  0  0  0  0  0  0
    6.0582    3.1297    0.3347 F   0  0  0  0  0  0  0  0  0  0  0  0
    4.2703    1.6094    0.2178 C   0  0  0  0  0  0  0  0  0  0  0  0
    3.9081   -0.9083   -0.6254 H   0  0  0  0  0  0  0  0  0  0  0  0
    0.2051   -1.3229   -1.0502 H   0  0  0  0  0  0  0  0  0  0  0  0
   -1.2276   -4.1828   -4.2075 H   0  0  0  0  0  0  0  0  0  0  0  0
   -2.1685   -6.1846   -5.2065 H   0  0  0  0  0  0  0  0  0  0  0  0
   -0.8460   -8.2843   -5.3038 H   0  0  0  0  0  0  0  0  0  0  0  0
    1.4787   -8.3139   -4.4320 H   0  0  0  0  0  0  0  0  0  0  0  0
    2.4473   -6.3031   -3.3876 H   0  0  0  0  0  0  0  0  0  0  0  0
    4.1221   -2.8156   -2.0036 H   0  0  0  0  0  0  0  0  0  0  0  0
    1.7409    1.1745    2.4489 H   0  0  0  0  0  0  0  0  0  0  0  0
    0.7245    2.8222    3.6972 H   0  0  0  0  0  0  0  0  0  0  0  0
    0.0902    3.7508    5.8948 H   0  0  0  0  0  0  0  0  0  0  0  0
    1.8700    4.6305    7.4126 H   0  0  0  0  0  0  0  0  0  0  0  0
    4.2415    4.5208    6.6381 H   0  0  0  0  0  0  0  0  0  0  0  0
    5.0707    3.9091    2.5888 H   0  0  0  0  0  0  0  0  0  0  0  0
    4.6275    1.2888   -0.7536 H   0  0  0  0  0  0  0  0  0  0  0  0
  1  2  2  0  0  0  0
  2  3  1  0  0  0  0
  2 17  1  0  0  0  0
  3  4  1  0  0  0  0
  3 30  1  0  0  0  0
  4  5  2  0  0  0  0
  4 16  1  0  0  0  0
  5  6  1  0  0  0  0
  5 31  1  0  0  0  0
  6  7  2  0  0  0  0
  6  8  1  0  0  0  0
  8  9  1  0  0  0  0
  8 15  1  0  0  0  0
  9 10  2  0  0  0  0
  9 14  1  0  0  0  0
 10 11  1  0  0  0  0
 10 32  1  0  0  0  0
 11 12  2  0  0  0  0
 11 33  1  0  0  0  0
 12 13  1  0  0  0  0
 12 34  1  0  0  0  0
 13 14  2  0  0  0  0
 13 35  1  0  0  0  0
 14 36  1  0  0  0  0
 15 16  2  0  0  0  0
 16 37  1  0  0  0  0
 17 18  2  0  0  0  0
 17 29  1  0  0  0  0
 18 19  1  0  0  0  0
 18 38  1  0  0  0  0
 19 20  1  0  0  0  0
 19 26  2  0  0  0  0
 20 21  2  0  0  0  0
 20 25  1  0  0  0  0
 21 22  1  0  0  0  0
 21 39  1  0  0  0  0
 22 23  2  0  0  0  0
 22 40  1  0  0  0  0
 23 24  1  0  0  0  0
 23 41  1  0  0  0  0
 24 25  2  0  0  0  0
 24 42  1  0  0  0  0
 26 27  1  0  0  0  0
 26 43  1  0  0  0  0
 27 28  1  0  0  0  0
 27 29  2  0  0  0  0
 29 44  1  0  0  0  0
M  END
$$$$
