
 OpenBabel01122422523D

 50 53  0  0  0  0  0  0  0  0999 V2000
    4.1695   -3.1015   -5.3804 C   0  0  0  0  0  0  0  0  0  0  0  0
    4.1435   -1.9476   -4.5466 O   0  0  0  0  0  0  0  0  0  0  0  0
    5.3304   -1.2891   -4.3698 C   0  0  0  0  0  0  0  0  0  0  0  0
    6.5539   -1.6632   -4.9314 C   0  0  0  0  0  0  0  0  0  0  0  0
    7.7076   -0.9248   -4.6648 C   0  0  0  0  0  0  0  0  0  0  0  0
    7.6421    0.2023   -3.8494 C   0  0  0  0  0  0  0  0  0  0  0  0
    6.4115    0.6210   -3.3297 C   0  0  0  0  0  0  0  0  0  0  0  0
    6.3018    1.8788   -2.5375 C   0  0  0  0  0  0  0  0  0  0  0  0
    5.5200    1.9351   -1.5949 O   0  0  0  0  0  0  0  0  0  0  0  0
    7.1269    3.0763   -2.8824 C   0  0  0  0  0  0  0  0  0  0  0  0
    7.4557    3.9949   -1.8752 C   0  0  0  0  0  0  0  0  0  0  0  0
    8.2393    5.1210   -2.1693 C   0  0  0  0  0  0  0  0  0  0  0  0
    8.6996    5.3304   -3.4755 C   0  0  0  0  0  0  0  0  0  0  0  0
    9.5447    6.4882   -3.8589 C   0  0  0  0  0  0  0  0  0  0  0  0
   10.3133    6.4570   -4.8071 O   0  0  0  0  0  0  0  0  0  0  0  0
    9.2765    7.5548   -3.0716 O   0  0  0  0  0  0  0  0  0  0  0  0
    9.9618    8.7660   -3.4184 C   0  0  0  0  0  0  0  0  0  0  0  0
    8.9568    9.7933   -3.8829 C   0  0  0  0  0  0  0  0  0  0  0  0
    8.6223    9.8845   -5.2578 C   0  0  0  0  0  0  0  0  0  0  0  0
    7.6929   10.8242   -5.7198 C   0  0  0  0  0  0  0  0  0  0  0  0
    7.1092   11.6419   -4.7784 C   0  0  0  0  0  0  0  0  0  0  0  0
    7.4125   11.5550   -3.4360 C   0  0  0  0  0  0  0  0  0  0  0  0
    8.3313   10.6442   -2.9559 C   0  0  0  0  0  0  0  0  0  0  0  0
    6.7003   12.4617   -2.6666 O   0  0  0  0  0  0  0  0  0  0  0  0
    5.9197   13.1279   -3.6245 C   0  0  0  0  0  0  0  0  0  0  0  0
    5.1294   14.0165   -3.3353 O   0  0  0  0  0  0  0  0  0  0  0  0
    6.1748   12.6432   -4.8910 N   0  0  0  0  0  0  0  0  0  0  0  0
    5.5732   13.0906   -6.1134 C   0  0  0  0  0  0  0  0  0  0  0  0
    8.3655    4.4166   -4.4816 C   0  0  0  0  0  0  0  0  0  0  0  0
    7.5619    3.3121   -4.1931 C   0  0  0  0  0  0  0  0  0  0  0  0
    5.2639   -0.1466   -3.5632 C   0  0  0  0  0  0  0  0  0  0  0  0
    3.1533   -3.5029   -5.4349 H   0  0  0  0  0  0  0  0  0  0  0  0
    4.8132   -3.8803   -4.9570 H   0  0  0  0  0  0  0  0  0  0  0  0
    4.4797   -2.8448   -6.3991 H   0  0  0  0  0  0  0  0  0  0  0  0
    6.6467   -2.5308   -5.5765 H   0  0  0  0  0  0  0  0  0  0  0  0
    8.6581   -1.2283   -5.0967 H   0  0  0  0  0  0  0  0  0  0  0  0
    8.5571    0.7487   -3.6367 H   0  0  0  0  0  0  0  0  0  0  0  0
    7.1044    3.8336   -0.8566 H   0  0  0  0  0  0  0  0  0  0  0  0
    8.4899    5.8178   -1.3726 H   0  0  0  0  0  0  0  0  0  0  0  0
   10.7392    8.6299   -4.1800 H   0  0  0  0  0  0  0  0  0  0  0  0
   10.4759    9.1243   -2.5197 H   0  0  0  0  0  0  0  0  0  0  0  0
    9.0967    9.2141   -5.9741 H   0  0  0  0  0  0  0  0  0  0  0  0
    7.4470   10.8922   -6.7726 H   0  0  0  0  0  0  0  0  0  0  0  0
    8.5562   10.5950   -1.8958 H   0  0  0  0  0  0  0  0  0  0  0  0
    4.8896   13.9226   -5.9219 H   0  0  0  0  0  0  0  0  0  0  0  0
    5.0133   12.2659   -6.5638 H   0  0  0  0  0  0  0  0  0  0  0  0
    6.3552   13.4254   -6.8017 H   0  0  0  0  0  0  0  0  0  0  0  0
    8.7192    4.5696   -5.5000 H   0  0  0  0  0  0  0  0  0  0  0  0
    7.2846    2.6499   -5.0094 H   0  0  0  0  0  0  0  0  0  0  0  0
    4.3106    0.1510   -3.1300 H   0  0  0  0  0  0  0  0  0  0  0  0
  1  2  1  0  0  0  0
  1 32  1  0  0  0  0
  1 33  1  0  0  0  0
  1 34  1  0  0  0  0
  2  3  1  0  0  0  0
  3  4  2  0  0  0  0
  3 31  1  0  0  0  0
  4  5  1  0  0  0  0
  4 35  1  0  0  0  0
  5  6  2  0  0  0  0
  5 36  1  0  0  0  0
  6  7  1  0  0  0  0
  6 37  1  0  0  0  0
  7  8  1  0  0  0  0
  7 31  2  0  0  0  0
  8  9  2  0  0  0  0
  8 10  1  0  0  0  0
 10 11  2  0  0  0  0
 10 30  1  0  0  0  0
 11 12  1  0  0  0  0
 11 38  1  0  0  0  0
 12 13  2  0  0  0  0
 12 39  1  0  0  0  0
 13 14  1  0  0  0  0
 13 29  1  0  0  0  0
 14 15  2  0  0  0  0
 14 16  1  0  0  0  0
 16 17  1  0  0  0  0
 17 18  1  0  0  0  0
 17 40  1  0  0  0  0
 17 41  1  0  0  0  0
 18 19  2  0  0  0  0
 18 23  1  0  0  0  0
 19 20  1  0  0  0  0
 19 42  1  0  0  0  0
 20 21  2  0  0  0  0
 20 43  1  0  0  0  0
 21 22  1  0  0  0  0
 21 27  1  0  0  0  0
 22 23  2  0  0  0  0
 22 24  1  0  0  0  0
 23 44  1  0  0  0  0
 24 25  1  0  0  0  0
 25 26  2  0  0  0  0
 25 27  1  0  0  0  0
 27 28  1  0  0  0  0
 28 45  1  0  0  0  0
 28 46  1  0  0  0  0
 28 47  1  0  0  0  0
 29 30  2  0  0  0  0
 29 48  1  0  0  0  0
 30 49  1  0  0  0  0
 31 50  1  0  0  0  0
M  END
$$$$
