
 OpenBabel01122422523D

 41 44  0  0  0  0  0  0  0  0999 V2000
    1.0423    0.5757    0.5425 O   0  0  0  0  0  0  0  0  0  0  0  0
    2.2014    0.2932    0.2531 C   0  0  0  0  0  0  0  0  0  0  0  0
    2.7828    0.5139   -0.9971 N   0  0  0  0  0  0  0  0  0  0  0  0
    2.1302    1.0279   -2.0976 C   0  0  0  0  0  0  0  0  0  0  0  0
    0.9935    1.7396   -2.0307 C   0  0  0  0  0  0  0  0  0  0  0  0
    0.2716    2.1417   -3.1495 N   0  0  0  0  0  0  0  0  0  0  0  0
   -1.0080    2.7694   -2.9825 C   0  0  0  0  0  0  0  0  0  0  0  0
   -1.8854    2.3241   -1.9780 C   0  0  0  0  0  0  0  0  0  0  0  0
   -3.1507    2.8940   -1.8294 C   0  0  0  0  0  0  0  0  0  0  0  0
   -3.5409    3.9415   -2.6582 C   0  0  0  0  0  0  0  0  0  0  0  0
   -2.6686    4.4166   -3.6360 C   0  0  0  0  0  0  0  0  0  0  0  0
   -1.4134    3.8255   -3.8062 C   0  0  0  0  0  0  0  0  0  0  0  0
    0.7163    1.8177   -4.4424 C   0  0  0  0  0  0  0  0  0  0  0  0
    0.1301    2.0342   -5.5012 O   0  0  0  0  0  0  0  0  0  0  0  0
    2.0171    1.0891   -4.5135 C   0  0  0  0  0  0  0  0  0  0  0  0
    2.6792    0.7390   -3.4026 C   0  0  0  0  0  0  0  0  0  0  0  0
    3.0869   -0.3834    1.2061 C   0  0  0  0  0  0  0  0  0  0  0  0
    2.6409   -0.8233    2.3937 N   0  0  0  0  0  0  0  0  0  0  0  0
    3.7585   -1.4020    2.9700 O   0  0  0  0  0  0  0  0  0  0  0  0
    4.7831   -1.2607    2.0814 C   0  0  0  0  0  0  0  0  0  0  0  0
    6.0798   -1.7640    2.5106 C   0  0  0  0  0  0  0  0  0  0  0  0
    6.2238   -2.4759    3.7129 C   0  0  0  0  0  0  0  0  0  0  0  0
    7.4785   -2.9238    4.1158 C   0  0  0  0  0  0  0  0  0  0  0  0
    7.5949   -3.5976    5.2669 F   0  0  0  0  0  0  0  0  0  0  0  0
    8.6046   -2.6836    3.3456 C   0  0  0  0  0  0  0  0  0  0  0  0
    8.4630   -1.9858    2.1556 C   0  0  0  0  0  0  0  0  0  0  0  0
    9.5430   -1.7443    1.4028 F   0  0  0  0  0  0  0  0  0  0  0  0
    7.2166   -1.5300    1.7316 C   0  0  0  0  0  0  0  0  0  0  0  0
    4.4250   -0.6570    0.9662 N   0  0  0  0  0  0  0  0  0  0  0  0
    3.7032    0.1030   -1.1265 H   0  0  0  0  0  0  0  0  0  0  0  0
    0.5797    2.0566   -1.0797 H   0  0  0  0  0  0  0  0  0  0  0  0
   -1.6197    1.4876   -1.3347 H   0  0  0  0  0  0  0  0  0  0  0  0
   -3.8321    2.5077   -1.0759 H   0  0  0  0  0  0  0  0  0  0  0  0
   -4.5271    4.3837   -2.5462 H   0  0  0  0  0  0  0  0  0  0  0  0
   -2.9662    5.2439   -4.2744 H   0  0  0  0  0  0  0  0  0  0  0  0
   -0.7480    4.2182   -4.5710 H   0  0  0  0  0  0  0  0  0  0  0  0
    2.3689    0.8451   -5.5080 H   0  0  0  0  0  0  0  0  0  0  0  0
    3.6174    0.2017   -3.4850 H   0  0  0  0  0  0  0  0  0  0  0  0
    5.3727   -2.6903    4.3561 H   0  0  0  0  0  0  0  0  0  0  0  0
    9.5782   -3.0339    3.6701 H   0  0  0  0  0  0  0  0  0  0  0  0
    7.1548   -0.9778    0.7966 H   0  0  0  0  0  0  0  0  0  0  0  0
  1  2  2  0  0  0  0
  2  3  1  0  0  0  0
  2 17  1  0  0  0  0
  3  4  1  0  0  0  0
  3 30  1  0  0  0  0
  4  5  2  0  0  0  0
  4 16  1  0  0  0  0
  5  6  1  0  0  0  0
  5 31  1  0  0  0  0
  6  7  1  0  0  0  0
  6 13  1  0  0  0  0
  7  8  2  0  0  0  0
  7 12  1  0  0  0  0
  8  9  1  0  0  0  0
  8 32  1  0  0  0  0
  9 10  2  0  0  0  0
  9 33  1  0  0  0  0
 10 11  1  0  0  0  0
 10 34  1  0  0  0  0
 11 12  2  0  0  0  0
 11 35  1  0  0  0  0
 12 36  1  0  0  0  0
 13 14  2  0  0  0  0
 13 15  1  0  0  0  0
 15 16  2  0  0  0  0
 15 37  1  0  0  0  0
 16 38  1  0  0  0  0
 17 18  2  0  0  0  0
 17 29  1  0  0  0  0
 18 19  1  0  0  0  0
 19 20  1  0  0  0  0
 20 21  1  0  0  0  0
 20 29  2  0  0  0  0
 21 22  2  0  0  0  0
 21 28  1  0  0  0  0
 22 23  1  0  0  0  0
 22 39  1  0  0  0  0
 23 24  1  0  0  0  0
 23 25  2  0  0  0  0
 25 26  1  0  0  0  0
 25 40  1  0  0  0  0
 26 27  1  0  0  0  0
 26 28  2  0  0  0  0
 28 41  1  0  0  0  0
M  END
$$$$
