
 OpenBabel01122422523D

 42 45  0  0  0  0  0  0  0  0999 V2000
    0.9800    0.3370   -0.5825 O   0  0  0  0  0  0  0  0  0  0  0  0
    2.1493    0.1068   -0.2979 C   0  0  0  0  0  0  0  0  0  0  0  0
    2.8017   -1.0883   -0.5618 N   0  0  0  0  0  0  0  0  0  0  0  0
    2.2084   -2.2409   -1.1309 C   0  0  0  0  0  0  0  0  0  0  0  0
    0.9705   -2.2220   -1.7720 C   0  0  0  0  0  0  0  0  0  0  0  0
    0.4298   -3.4145   -2.2116 C   0  0  0  0  0  0  0  0  0  0  0  0
    1.0466   -4.6006   -2.0787 N   0  0  0  0  0  0  0  0  0  0  0  0
    2.2758   -4.5963   -1.5178 C   0  0  0  0  0  0  0  0  0  0  0  0
    2.9839   -5.7897   -1.4137 O   0  0  0  0  0  0  0  0  0  0  0  0
    2.6186   -6.8162   -2.2563 C   0  0  0  0  0  0  0  0  0  0  0  0
    2.3505   -6.6218   -3.6206 C   0  0  0  0  0  0  0  0  0  0  0  0
    1.9667   -7.6983   -4.4182 C   0  0  0  0  0  0  0  0  0  0  0  0
    1.8993   -8.9715   -3.8636 C   0  0  0  0  0  0  0  0  0  0  0  0
    1.5288  -10.0026   -4.6361 F   0  0  0  0  0  0  0  0  0  0  0  0
    2.2135   -9.1915   -2.5300 C   0  0  0  0  0  0  0  0  0  0  0  0
    2.5745   -8.1091   -1.7322 C   0  0  0  0  0  0  0  0  0  0  0  0
    2.8778   -8.3263   -0.4435 F   0  0  0  0  0  0  0  0  0  0  0  0
    2.8909   -3.4544   -1.0248 C   0  0  0  0  0  0  0  0  0  0  0  0
    2.9513    1.0735    0.4062 C   0  0  0  0  0  0  0  0  0  0  0  0
    4.2732    1.4285    0.2075 C   0  0  0  0  0  0  0  0  0  0  0  0
    4.4571    2.5838    0.9784 C   0  0  0  0  0  0  0  0  0  0  0  0
    3.3536    2.9391    1.6321 N   0  0  0  0  0  0  0  0  0  0  0  0
    2.4600    1.9455    1.3698 N   0  0  0  0  0  0  0  0  0  0  0  0
    1.2563    1.8755    2.1265 C   0  0  0  0  0  0  0  0  0  0  0  0
    0.7176    3.0463    2.6654 C   0  0  0  0  0  0  0  0  0  0  0  0
   -0.4540    2.9484    3.3971 C   0  0  0  0  0  0  0  0  0  0  0  0
   -1.0888    1.7837    3.6509 N   0  0  0  0  0  0  0  0  0  0  0  0
   -0.5324    0.6649    3.1426 C   0  0  0  0  0  0  0  0  0  0  0  0
    0.6246    0.6556    2.3807 C   0  0  0  0  0  0  0  0  0  0  0  0
    3.7303   -1.1972   -0.1748 H   0  0  0  0  0  0  0  0  0  0  0  0
    0.4079   -1.3143   -1.9497 H   0  0  0  0  0  0  0  0  0  0  0  0
   -0.5387   -3.4417   -2.7028 H   0  0  0  0  0  0  0  0  0  0  0  0
    2.4020   -5.6280   -4.0566 H   0  0  0  0  0  0  0  0  0  0  0  0
    1.7087   -7.5439   -5.4606 H   0  0  0  0  0  0  0  0  0  0  0  0
    2.1716  -10.1913   -2.1140 H   0  0  0  0  0  0  0  0  0  0  0  0
    3.8656   -3.5302   -0.5576 H   0  0  0  0  0  0  0  0  0  0  0  0
    4.9791    0.9795   -0.4774 H   0  0  0  0  0  0  0  0  0  0  0  0
    5.3411    3.2031    1.0681 H   0  0  0  0  0  0  0  0  0  0  0  0
    1.1705    4.0181    2.4964 H   0  0  0  0  0  0  0  0  0  0  0  0
   -0.9321    3.8329    3.8086 H   0  0  0  0  0  0  0  0  0  0  0  0
   -1.0523   -0.2596    3.3791 H   0  0  0  0  0  0  0  0  0  0  0  0
    1.0132   -0.2970    2.0429 H   0  0  0  0  0  0  0  0  0  0  0  0
  1  2  2  0  0  0  0
  2  3  1  0  0  0  0
  2 19  1  0  0  0  0
  3  4  1  0  0  0  0
  3 30  1  0  0  0  0
  4  5  2  0  0  0  0
  4 18  1  0  0  0  0
  5  6  1  0  0  0  0
  5 31  1  0  0  0  0
  6  7  2  0  0  0  0
  6 32  1  0  0  0  0
  7  8  1  0  0  0  0
  8  9  1  0  0  0  0
  8 18  2  0  0  0  0
  9 10  1  0  0  0  0
 10 11  2  0  0  0  0
 10 16  1  0  0  0  0
 11 12  1  0  0  0  0
 11 33  1  0  0  0  0
 12 13  2  0  0  0  0
 12 34  1  0  0  0  0
 13 14  1  0  0  0  0
 13 15  1  0  0  0  0
 15 16  2  0  0  0  0
 15 35  1  0  0  0  0
 16 17  1  0  0  0  0
 18 36  1  0  0  0  0
 19 20  2  0  0  0  0
 19 23  1  0  0  0  0
 20 21  1  0  0  0  0
 20 37  1  0  0  0  0
 21 22  2  0  0  0  0
 21 38  1  0  0  0  0
 22 23  1  0  0  0  0
 23 24  1  0  0  0  0
 24 25  2  0  0  0  0
 24 29  1  0  0  0  0
 25 26  1  0  0  0  0
 25 39  1  0  0  0  0
 26 27  2  0  0  0  0
 26 40  1  0  0  0  0
 27 28  1  0  0  0  0
 28 29  2  0  0  0  0
 28 41  1  0  0  0  0
 29 42  1  0  0  0  0
M  END
$$$$
