
 OpenBabel01122422463D

 38 41  0  0  0  0  0  0  0  0999 V2000
    0.9363    0.1038    0.2186 O   0  0  0  0  0  0  0  0  0  0  0  0
    2.1527    0.0934    0.0467 C   0  0  0  0  0  0  0  0  0  0  0  0
    2.8687    1.1228   -0.5476 N   0  0  0  0  0  0  0  0  0  0  0  0
    2.2949    2.3301   -1.0191 C   0  0  0  0  0  0  0  0  0  0  0  0
    1.0348    2.7748   -0.6115 C   0  0  0  0  0  0  0  0  0  0  0  0
    0.4483    3.9066   -1.1808 C   0  0  0  0  0  0  0  0  0  0  0  0
    1.1183    4.6315   -2.1678 C   0  0  0  0  0  0  0  0  0  0  0  0
    0.4735    5.7517   -2.8431 C   0  0  0  0  0  0  0  0  0  0  0  0
    1.0465    6.8018   -3.3995 N   0  0  0  0  0  0  0  0  0  0  0  0
    0.0638    7.5882   -3.9611 N   0  0  0  0  0  0  0  0  0  0  0  0
   -1.0849    6.9917   -3.7584 C   0  0  0  0  0  0  0  0  0  0  0  0
   -0.8810    5.8448   -3.0602 N   0  0  0  0  0  0  0  0  0  0  0  0
    2.4181    4.2397   -2.5145 C   0  0  0  0  0  0  0  0  0  0  0  0
    3.0056    3.1015   -1.9420 C   0  0  0  0  0  0  0  0  0  0  0  0
    2.9108   -1.0718    0.4219 C   0  0  0  0  0  0  0  0  0  0  0  0
    2.4570   -2.2895    0.8637 C   0  0  0  0  0  0  0  0  0  0  0  0
    3.6156   -3.0603    1.1080 C   0  0  0  0  0  0  0  0  0  0  0  0
    3.6546   -4.4389    1.5793 C   0  0  0  0  0  0  0  0  0  0  0  0
    2.6583   -5.3474    1.1913 C   0  0  0  0  0  0  0  0  0  0  0  0
    1.6753   -4.9707    0.3586 F   0  0  0  0  0  0  0  0  0  0  0  0
    2.6469   -6.6626    1.6460 C   0  0  0  0  0  0  0  0  0  0  0  0
    3.6484   -7.0838    2.5059 C   0  0  0  0  0  0  0  0  0  0  0  0
    3.6450   -8.3460    2.9511 F   0  0  0  0  0  0  0  0  0  0  0  0
    4.6489   -6.2135    2.9166 C   0  0  0  0  0  0  0  0  0  0  0  0
    4.6455   -4.8980    2.4525 C   0  0  0  0  0  0  0  0  0  0  0  0
    5.6034   -4.0751    2.9031 F   0  0  0  0  0  0  0  0  0  0  0  0
    4.7145   -2.3389    0.8259 N   0  0  0  0  0  0  0  0  0  0  0  0
    4.2687   -1.0966    0.3907 O   0  0  0  0  0  0  0  0  0  0  0  0
    3.8323    0.9329   -0.7963 H   0  0  0  0  0  0  0  0  0  0  0  0
    0.4702    2.2627    0.1617 H   0  0  0  0  0  0  0  0  0  0  0  0
   -0.5364    4.2019   -0.8290 H   0  0  0  0  0  0  0  0  0  0  0  0
   -2.0562    7.3298   -4.0895 H   0  0  0  0  0  0  0  0  0  0  0  0
   -1.5765    5.1656   -2.7930 H   0  0  0  0  0  0  0  0  0  0  0  0
    2.9709    4.8079   -3.2637 H   0  0  0  0  0  0  0  0  0  0  0  0
    4.0026    2.8122   -2.2676 H   0  0  0  0  0  0  0  0  0  0  0  0
    1.4197   -2.5680    0.9839 H   0  0  0  0  0  0  0  0  0  0  0  0
    1.8643   -7.3446    1.3323 H   0  0  0  0  0  0  0  0  0  0  0  0
    5.4212   -6.5506    3.5993 H   0  0  0  0  0  0  0  0  0  0  0  0
  1  2  2  0  0  0  0
  2  3  1  0  0  0  0
  2 15  1  0  0  0  0
  3  4  1  0  0  0  0
  3 29  1  0  0  0  0
  4  5  2  0  0  0  0
  4 14  1  0  0  0  0
  5  6  1  0  0  0  0
  5 30  1  0  0  0  0
  6  7  2  0  0  0  0
  6 31  1  0  0  0  0
  7  8  1  0  0  0  0
  7 13  1  0  0  0  0
  8  9  2  0  0  0  0
  8 12  1  0  0  0  0
  9 10  1  0  0  0  0
 10 11  2  0  0  0  0
 11 12  1  0  0  0  0
 11 32  1  0  0  0  0
 12 33  1  0  0  0  0
 13 14  2  0  0  0  0
 13 34  1  0  0  0  0
 14 35  1  0  0  0  0
 15 16  2  0  0  0  0
 15 28  1  0  0  0  0
 16 17  1  0  0  0  0
 16 36  1  0  0  0  0
 17 18  1  0  0  0  0
 17 27  2  0  0  0  0
 18 19  2  0  0  0  0
 18 25  1  0  0  0  0
 19 20  1  0  0  0  0
 19 21  1  0  0  0  0
 21 22  2  0  0  0  0
 21 37  1  0  0  0  0
 22 23  1  0  0  0  0
 22 24  1  0  0  0  0
 24 25  2  0  0  0  0
 24 38  1  0  0  0  0
 25 26  1  0  0  0  0
 27 28  1  0  0  0  0
M  END
$$$$
