
 OpenBabel01122422523D

 42 45  0  0  0  0  0  0  0  0999 V2000
    1.1258   -0.4498   -0.0703 O   0  0  0  0  0  0  0  0  0  0  0  0
    2.3095   -0.1269   -0.0338 C   0  0  0  0  0  0  0  0  0  0  0  0
    2.9600    0.6069   -1.0002 N   0  0  0  0  0  0  0  0  0  0  0  0
    2.3357    1.1658   -2.1099 C   0  0  0  0  0  0  0  0  0  0  0  0
    1.0854    0.8922   -2.6061 C   0  0  0  0  0  0  0  0  0  0  0  0
    0.8687    1.6205   -3.7246 O   0  0  0  0  0  0  0  0  0  0  0  0
    1.9705    2.4082   -3.9843 N   0  0  0  0  0  0  0  0  0  0  0  0
    2.8563    2.1564   -3.0053 C   0  0  0  0  0  0  0  0  0  0  0  0
    4.1374    2.8661   -2.9508 C   0  0  0  0  0  0  0  0  0  0  0  0
    4.7332    3.2041   -1.7250 C   0  0  0  0  0  0  0  0  0  0  0  0
    5.9809    3.8322   -1.6875 C   0  0  0  0  0  0  0  0  0  0  0  0
    6.6294    4.1627   -2.8745 C   0  0  0  0  0  0  0  0  0  0  0  0
    6.0277    3.8775   -4.0983 C   0  0  0  0  0  0  0  0  0  0  0  0
    4.7894    3.2320   -4.1364 C   0  0  0  0  0  0  0  0  0  0  0  0
    3.1646   -0.5019    1.1453 C   0  0  0  0  0  0  0  0  0  0  0  0
    2.7422   -1.5421    1.8854 C   0  0  0  0  0  0  0  0  0  0  0  0
    3.3478   -1.9011    3.0814 N   0  0  0  0  0  0  0  0  0  0  0  0
    2.8025   -2.9727    3.8537 C   0  0  0  0  0  0  0  0  0  0  0  0
    2.4261   -2.7692    5.1850 C   0  0  0  0  0  0  0  0  0  0  0  0
    1.8126   -3.7997    5.8879 C   0  0  0  0  0  0  0  0  0  0  0  0
    1.3921   -3.5820    7.1410 F   0  0  0  0  0  0  0  0  0  0  0  0
    1.6032   -5.0450    5.3066 C   0  0  0  0  0  0  0  0  0  0  0  0
    2.0028   -5.2647    3.9902 C   0  0  0  0  0  0  0  0  0  0  0  0
    2.5812   -4.2255    3.2583 C   0  0  0  0  0  0  0  0  0  0  0  0
    4.4362   -1.1777    3.5969 C   0  0  0  0  0  0  0  0  0  0  0  0
    5.0232   -1.3985    4.6534 O   0  0  0  0  0  0  0  0  0  0  0  0
    4.9290   -0.0646    2.7434 C   0  0  0  0  0  0  0  0  0  0  0  0
    4.3170    0.2516    1.5948 C   0  0  0  0  0  0  0  0  0  0  0  0
    3.9465    0.8001   -0.9074 H   0  0  0  0  0  0  0  0  0  0  0  0
    0.2836    0.2254   -2.3240 H   0  0  0  0  0  0  0  0  0  0  0  0
    4.2253    3.0151   -0.7838 H   0  0  0  0  0  0  0  0  0  0  0  0
    6.4403    4.0789   -0.7333 H   0  0  0  0  0  0  0  0  0  0  0  0
    7.5963    4.6594   -2.8477 H   0  0  0  0  0  0  0  0  0  0  0  0
    6.5192    4.1589   -5.0262 H   0  0  0  0  0  0  0  0  0  0  0  0
    4.3346    3.0185   -5.1025 H   0  0  0  0  0  0  0  0  0  0  0  0
    1.8503   -2.1051    1.6065 H   0  0  0  0  0  0  0  0  0  0  0  0
    2.5573   -1.8072    5.6689 H   0  0  0  0  0  0  0  0  0  0  0  0
    1.1287   -5.8334    5.8822 H   0  0  0  0  0  0  0  0  0  0  0  0
    1.8652   -6.2413    3.5337 H   0  0  0  0  0  0  0  0  0  0  0  0
    2.8990   -4.4116    2.2348 H   0  0  0  0  0  0  0  0  0  0  0  0
    5.7966    0.4688    3.1123 H   0  0  0  0  0  0  0  0  0  0  0  0
    4.6853    1.0929    1.0237 H   0  0  0  0  0  0  0  0  0  0  0  0
  1  2  2  0  0  0  0
  2  3  1  0  0  0  0
  2 15  1  0  0  0  0
  3  4  1  0  0  0  0
  3 29  1  0  0  0  0
  4  5  2  0  0  0  0
  4  8  1  0  0  0  0
  5  6  1  0  0  0  0
  5 30  1  0  0  0  0
  6  7  1  0  0  0  0
  7  8  2  0  0  0  0
  8  9  1  0  0  0  0
  9 10  2  0  0  0  0
  9 14  1  0  0  0  0
 10 11  1  0  0  0  0
 10 31  1  0  0  0  0
 11 12  2  0  0  0  0
 11 32  1  0  0  0  0
 12 13  1  0  0  0  0
 12 33  1  0  0  0  0
 13 14  2  0  0  0  0
 13 34  1  0  0  0  0
 14 35  1  0  0  0  0
 15 16  2  0  0  0  0
 15 28  1  0  0  0  0
 16 17  1  0  0  0  0
 16 36  1  0  0  0  0
 17 18  1  0  0  0  0
 17 25  1  0  0  0  0
 18 19  2  0  0  0  0
 18 24  1  0  0  0  0
 19 20  1  0  0  0  0
 19 37  1  0  0  0  0
 20 21  1  0  0  0  0
 20 22  2  0  0  0  0
 22 23  1  0  0  0  0
 22 38  1  0  0  0  0
 23 24  2  0  0  0  0
 23 39  1  0  0  0  0
 24 40  1  0  0  0  0
 25 26  2  0  0  0  0
 25 27  1  0  0  0  0
 27 28  2  0  0  0  0
 27 41  1  0  0  0  0
 28 42  1  0  0  0  0
M  END
$$$$
