
 OpenBabel01122422523D

 42 45  0  0  0  0  0  0  0  0999 V2000
    1.3762   -1.0403    0.3705 O   0  0  0  0  0  0  0  0  0  0  0  0
    2.2511   -0.1783    0.3308 C   0  0  0  0  0  0  0  0  0  0  0  0
    2.4320    0.8271    1.2597 N   0  0  0  0  0  0  0  0  0  0  0  0
    1.7648    0.9438    2.4598 C   0  0  0  0  0  0  0  0  0  0  0  0
    0.6770    0.2404    2.8118 C   0  0  0  0  0  0  0  0  0  0  0  0
    0.0323    0.3642    4.0432 N   0  0  0  0  0  0  0  0  0  0  0  0
   -1.1232   -0.4504    4.3350 C   0  0  0  0  0  0  0  0  0  0  0  0
   -2.1705    0.0231    5.1368 C   0  0  0  0  0  0  0  0  0  0  0  0
   -3.2987   -0.7654    5.3933 C   0  0  0  0  0  0  0  0  0  0  0  0
   -3.3951   -2.0479    4.8634 C   0  0  0  0  0  0  0  0  0  0  0  0
   -2.3679   -2.5411    4.0669 C   0  0  0  0  0  0  0  0  0  0  0  0
   -1.2465   -1.7478    3.7993 C   0  0  0  0  0  0  0  0  0  0  0  0
    0.5154    1.2745    4.9950 C   0  0  0  0  0  0  0  0  0  0  0  0
    0.0701    1.4860    6.1322 O   0  0  0  0  0  0  0  0  0  0  0  0
    1.7354    2.0420    4.6167 C   0  0  0  0  0  0  0  0  0  0  0  0
    2.3075    1.8761    3.4224 C   0  0  0  0  0  0  0  0  0  0  0  0
    3.3527   -0.3026   -0.6592 C   0  0  0  0  0  0  0  0  0  0  0  0
    3.2910   -1.3602   -1.4917 C   0  0  0  0  0  0  0  0  0  0  0  0
    4.4048   -2.1115   -1.8659 N   0  0  0  0  0  0  0  0  0  0  0  0
    5.4565   -2.0375   -0.9045 C   0  0  0  0  0  0  0  0  0  0  0  0
    6.1022   -3.1908   -0.4725 C   0  0  0  0  0  0  0  0  0  0  0  0
    7.0338   -3.1008    0.5648 C   0  0  0  0  0  0  0  0  0  0  0  0
    7.3707   -1.8562    1.1026 C   0  0  0  0  0  0  0  0  0  0  0  0
    8.2598   -1.7930    2.1010 F   0  0  0  0  0  0  0  0  0  0  0  0
    6.7432   -0.6929    0.6829 C   0  0  0  0  0  0  0  0  0  0  0  0
    5.7435   -0.8112   -0.2752 C   0  0  0  0  0  0  0  0  0  0  0  0
    4.7112    0.2398   -0.3949 C   0  0  0  0  0  0  0  0  0  0  0  0
    4.9054    1.4130   -0.1078 O   0  0  0  0  0  0  0  0  0  0  0  0
    3.2159    1.4605    1.1062 H   0  0  0  0  0  0  0  0  0  0  0  0
    0.2074   -0.4413    2.1155 H   0  0  0  0  0  0  0  0  0  0  0  0
   -2.1532    1.0300    5.5411 H   0  0  0  0  0  0  0  0  0  0  0  0
   -4.1021   -0.3665    6.0070 H   0  0  0  0  0  0  0  0  0  0  0  0
   -4.2691   -2.6602    5.0718 H   0  0  0  0  0  0  0  0  0  0  0  0
   -2.4314   -3.5459    3.6567 H   0  0  0  0  0  0  0  0  0  0  0  0
   -0.4533   -2.1877    3.1988 H   0  0  0  0  0  0  0  0  0  0  0  0
    2.1329    2.7212    5.3577 H   0  0  0  0  0  0  0  0  0  0  0  0
    3.2004    2.4483    3.1745 H   0  0  0  0  0  0  0  0  0  0  0  0
    2.3717   -1.9226   -1.6508 H   0  0  0  0  0  0  0  0  0  0  0  0
    4.7629   -1.7494   -2.7571 H   0  0  0  0  0  0  0  0  0  0  0  0
    5.8039   -4.1619   -0.8592 H   0  0  0  0  0  0  0  0  0  0  0  0
    7.4756   -3.9994    0.9852 H   0  0  0  0  0  0  0  0  0  0  0  0
    6.9552    0.2527    1.1700 H   0  0  0  0  0  0  0  0  0  0  0  0
  1  2  2  0  0  0  0
  2  3  1  0  0  0  0
  2 17  1  0  0  0  0
  3  4  1  0  0  0  0
  3 29  1  0  0  0  0
  4  5  2  0  0  0  0
  4 16  1  0  0  0  0
  5  6  1  0  0  0  0
  5 30  1  0  0  0  0
  6  7  1  0  0  0  0
  6 13  1  0  0  0  0
  7  8  2  0  0  0  0
  7 12  1  0  0  0  0
  8  9  1  0  0  0  0
  8 31  1  0  0  0  0
  9 10  2  0  0  0  0
  9 32  1  0  0  0  0
 10 11  1  0  0  0  0
 10 33  1  0  0  0  0
 11 12  2  0  0  0  0
 11 34  1  0  0  0  0
 12 35  1  0  0  0  0
 13 14  2  0  0  0  0
 13 15  1  0  0  0  0
 15 16  2  0  0  0  0
 15 36  1  0  0  0  0
 16 37  1  0  0  0  0
 17 18  2  0  0  0  0
 17 27  1  0  0  0  0
 18 19  1  0  0  0  0
 18 38  1  0  0  0  0
 19 20  1  0  0  0  0
 19 39  1  0  0  0  0
 20 21  2  0  0  0  0
 20 26  1  0  0  0  0
 21 22  1  0  0  0  0
 21 40  1  0  0  0  0
 22 23  2  0  0  0  0
 22 41  1  0  0  0  0
 23 24  1  0  0  0  0
 23 25  1  0  0  0  0
 25 26  2  0  0  0  0
 25 42  1  0  0  0  0
 26 27  1  0  0  0  0
 27 28  2  0  0  0  0
M  END
$$$$
