
 OpenBabel01122422523D

 43 46  0  0  0  0  0  0  0  0999 V2000
    1.0664    0.1280   -0.0187 O   0  0  0  0  0  0  0  0  0  0  0  0
    2.2785   -0.0380   -0.0913 C   0  0  0  0  0  0  0  0  0  0  0  0
    2.9257   -1.2448   -0.2979 N   0  0  0  0  0  0  0  0  0  0  0  0
    2.2587   -2.4778   -0.4857 C   0  0  0  0  0  0  0  0  0  0  0  0
    0.9116   -2.5894   -0.8098 C   0  0  0  0  0  0  0  0  0  0  0  0
    0.2536   -3.7649   -0.9270 N   0  0  0  0  0  0  0  0  0  0  0  0
    0.9558   -4.8843   -0.6958 C   0  0  0  0  0  0  0  0  0  0  0  0
    0.3027   -6.1023   -0.7314 C   0  0  0  0  0  0  0  0  0  0  0  0
    0.9887   -7.2834   -0.4722 C   0  0  0  0  0  0  0  0  0  0  0  0
    2.3403   -7.1996   -0.1957 C   0  0  0  0  0  0  0  0  0  0  0  0
    3.0259   -6.0359   -0.1595 N   0  0  0  0  0  0  0  0  0  0  0  0
    2.3356   -4.8998   -0.3972 C   0  0  0  0  0  0  0  0  0  0  0  0
    2.9724   -3.6660   -0.3206 C   0  0  0  0  0  0  0  0  0  0  0  0
    3.1458    1.1481    0.1147 C   0  0  0  0  0  0  0  0  0  0  0  0
    2.7080    2.1302    1.0125 C   0  0  0  0  0  0  0  0  0  0  0  0
    3.4338    3.3110    1.1681 C   0  0  0  0  0  0  0  0  0  0  0  0
    4.5946    3.5214    0.4153 C   0  0  0  0  0  0  0  0  0  0  0  0
    5.3023    4.8206    0.5653 C   0  0  0  0  0  0  0  0  0  0  0  0
    5.2455    5.4048    1.6445 O   0  0  0  0  0  0  0  0  0  0  0  0
    6.0705    5.4325   -0.5523 C   0  0  0  0  0  0  0  0  0  0  0  0
    5.7190    5.2342   -1.8953 C   0  0  0  0  0  0  0  0  0  0  0  0
    6.5000    5.8042   -2.8961 C   0  0  0  0  0  0  0  0  0  0  0  0
    6.2238    5.5994   -4.2158 O   0  0  0  0  0  0  0  0  0  0  0  0
    7.5954    6.6006   -2.5824 C   0  0  0  0  0  0  0  0  0  0  0  0
    7.9208    6.8358   -1.2475 C   0  0  0  0  0  0  0  0  0  0  0  0
    7.1604    6.2526   -0.2330 C   0  0  0  0  0  0  0  0  0  0  0  0
    5.0573    2.5143   -0.4449 C   0  0  0  0  0  0  0  0  0  0  0  0
    4.3232    1.3359   -0.6132 C   0  0  0  0  0  0  0  0  0  0  0  0
    3.9254   -1.2835   -0.1341 H   0  0  0  0  0  0  0  0  0  0  0  0
    0.2842   -1.7260   -1.0066 H   0  0  0  0  0  0  0  0  0  0  0  0
   -0.7620   -6.1243   -0.9490 H   0  0  0  0  0  0  0  0  0  0  0  0
    0.4756   -8.2379   -0.4819 H   0  0  0  0  0  0  0  0  0  0  0  0
    2.9218   -8.0902    0.0194 H   0  0  0  0  0  0  0  0  0  0  0  0
    4.0320   -3.6536   -0.0802 H   0  0  0  0  0  0  0  0  0  0  0  0
    1.7904    1.9842    1.5814 H   0  0  0  0  0  0  0  0  0  0  0  0
    3.0786    4.0719    1.8616 H   0  0  0  0  0  0  0  0  0  0  0  0
    4.8451    4.6489   -2.1600 H   0  0  0  0  0  0  0  0  0  0  0  0
    5.4261    5.0515   -4.2983 H   0  0  0  0  0  0  0  0  0  0  0  0
    8.1883    7.0463   -3.3768 H   0  0  0  0  0  0  0  0  0  0  0  0
    8.7648    7.4732   -0.9970 H   0  0  0  0  0  0  0  0  0  0  0  0
    7.4193    6.4385    0.8081 H   0  0  0  0  0  0  0  0  0  0  0  0
    5.9803    2.6384   -1.0063 H   0  0  0  0  0  0  0  0  0  0  0  0
    4.6591    0.6027   -1.3416 H   0  0  0  0  0  0  0  0  0  0  0  0
  1  2  2  0  0  0  0
  2  3  1  0  0  0  0
  2 14  1  0  0  0  0
  3  4  1  0  0  0  0
  3 29  1  0  0  0  0
  4  5  2  0  0  0  0
  4 13  1  0  0  0  0
  5  6  1  0  0  0  0
  5 30  1  0  0  0  0
  6  7  2  0  0  0  0
  7  8  1  0  0  0  0
  7 12  1  0  0  0  0
  8  9  2  0  0  0  0
  8 31  1  0  0  0  0
  9 10  1  0  0  0  0
  9 32  1  0  0  0  0
 10 11  2  0  0  0  0
 10 33  1  0  0  0  0
 11 12  1  0  0  0  0
 12 13  2  0  0  0  0
 13 34  1  0  0  0  0
 14 15  2  0  0  0  0
 14 28  1  0  0  0  0
 15 16  1  0  0  0  0
 15 35  1  0  0  0  0
 16 17  2  0  0  0  0
 16 36  1  0  0  0  0
 17 18  1  0  0  0  0
 17 27  1  0  0  0  0
 18 19  2  0  0  0  0
 18 20  1  0  0  0  0
 20 21  2  0  0  0  0
 20 26  1  0  0  0  0
 21 22  1  0  0  0  0
 21 37  1  0  0  0  0
 22 23  1  0  0  0  0
 22 24  2  0  0  0  0
 23 38  1  0  0  0  0
 24 25  1  0  0  0  0
 24 39  1  0  0  0  0
 25 26  2  0  0  0  0
 25 40  1  0  0  0  0
 26 41  1  0  0  0  0
 27 28  2  0  0  0  0
 27 42  1  0  0  0  0
 28 43  1  0  0  0  0
M  END
$$$$
