
 OpenBabel01122422463D

 44 47  0  0  0  0  0  0  0  0999 V2000
    1.2726   -0.4114   -0.7941 O   0  0  0  0  0  0  0  0  0  0  0  0
    2.3587   -0.2013   -0.2698 C   0  0  0  0  0  0  0  0  0  0  0  0
    2.9571   -1.0303    0.6767 N   0  0  0  0  0  0  0  0  0  0  0  0
    2.2974   -2.1590    1.1950 C   0  0  0  0  0  0  0  0  0  0  0  0
    1.6205   -3.0777    0.4191 C   0  0  0  0  0  0  0  0  0  0  0  0
    0.9282   -4.1231    0.9240 N   0  0  0  0  0  0  0  0  0  0  0  0
    0.8934   -4.2293    2.2687 C   0  0  0  0  0  0  0  0  0  0  0  0
   -0.0052   -5.2895    2.8614 C   0  0  0  0  0  0  0  0  0  0  0  0
    0.6858   -6.6049    3.1364 C   0  0  0  0  0  0  0  0  0  0  0  0
    1.2712   -6.8496    4.3890 C   0  0  0  0  0  0  0  0  0  0  0  0
    1.9306   -8.0541    4.6350 C   0  0  0  0  0  0  0  0  0  0  0  0
    2.0078   -9.0113    3.6306 C   0  0  0  0  0  0  0  0  0  0  0  0
    2.6533  -10.1617    3.8646 F   0  0  0  0  0  0  0  0  0  0  0  0
    1.4306   -8.7911    2.3859 C   0  0  0  0  0  0  0  0  0  0  0  0
    0.7707   -7.5871    2.1364 C   0  0  0  0  0  0  0  0  0  0  0  0
    1.5498   -3.4061    3.1164 N   0  0  0  0  0  0  0  0  0  0  0  0
    2.2534   -2.3998    2.5520 C   0  0  0  0  0  0  0  0  0  0  0  0
    3.1225    1.0512   -0.5429 C   0  0  0  0  0  0  0  0  0  0  0  0
    4.4777    0.8584   -0.6125 N   0  0  0  0  0  0  0  0  0  0  0  0
    5.2012    1.9337   -0.9850 C   0  0  0  0  0  0  0  0  0  0  0  0
    4.6200    3.1600   -1.2396 C   0  0  0  0  0  0  0  0  0  0  0  0
    3.2892    3.3697   -1.1072 N   0  0  0  0  0  0  0  0  0  0  0  0
    2.5131    2.3021   -0.7404 C   0  0  0  0  0  0  0  0  0  0  0  0
    1.0954    2.6542   -0.4967 C   0  0  0  0  0  0  0  0  0  0  0  0
    0.4539    3.6341   -1.2735 C   0  0  0  0  0  0  0  0  0  0  0  0
   -0.8596    3.9804   -0.9968 C   0  0  0  0  0  0  0  0  0  0  0  0
   -1.5910    3.4265   -0.0167 N   0  0  0  0  0  0  0  0  0  0  0  0
   -0.9702    2.4949    0.7401 C   0  0  0  0  0  0  0  0  0  0  0  0
    0.3467    2.1046    0.5554 C   0  0  0  0  0  0  0  0  0  0  0  0
    3.7330   -0.6299    1.1960 H   0  0  0  0  0  0  0  0  0  0  0  0
    1.6313   -3.0203   -0.6660 H   0  0  0  0  0  0  0  0  0  0  0  0
   -0.8543   -5.4583    2.1861 H   0  0  0  0  0  0  0  0  0  0  0  0
   -0.4470   -4.9048    3.7894 H   0  0  0  0  0  0  0  0  0  0  0  0
    1.2204   -6.0983    5.1747 H   0  0  0  0  0  0  0  0  0  0  0  0
    2.3890   -8.2482    5.5991 H   0  0  0  0  0  0  0  0  0  0  0  0
    1.5037   -9.5532    1.6167 H   0  0  0  0  0  0  0  0  0  0  0  0
    0.3286   -7.4134    1.1568 H   0  0  0  0  0  0  0  0  0  0  0  0
    2.7277   -1.7292    3.2619 H   0  0  0  0  0  0  0  0  0  0  0  0
    6.2708    1.7821   -1.0824 H   0  0  0  0  0  0  0  0  0  0  0  0
    5.2091    4.0173   -1.5474 H   0  0  0  0  0  0  0  0  0  0  0  0
    0.9776    4.1354   -2.0829 H   0  0  0  0  0  0  0  0  0  0  0  0
   -1.3717    4.7451   -1.5800 H   0  0  0  0  0  0  0  0  0  0  0  0
   -1.5760    2.0614    1.5273 H   0  0  0  0  0  0  0  0  0  0  0  0
    0.7618    1.3728    1.2395 H   0  0  0  0  0  0  0  0  0  0  0  0
  1  2  2  0  0  0  0
  2  3  1  0  0  0  0
  2 18  1  0  0  0  0
  3  4  1  0  0  0  0
  3 30  1  0  0  0  0
  4  5  2  0  0  0  0
  4 17  1  0  0  0  0
  5  6  1  0  0  0  0
  5 31  1  0  0  0  0
  6  7  2  0  0  0  0
  7  8  1  0  0  0  0
  7 16  1  0  0  0  0
  8  9  1  0  0  0  0
  8 32  1  0  0  0  0
  8 33  1  0  0  0  0
  9 10  2  0  0  0  0
  9 15  1  0  0  0  0
 10 11  1  0  0  0  0
 10 34  1  0  0  0  0
 11 12  2  0  0  0  0
 11 35  1  0  0  0  0
 12 13  1  0  0  0  0
 12 14  1  0  0  0  0
 14 15  2  0  0  0  0
 14 36  1  0  0  0  0
 15 37  1  0  0  0  0
 16 17  2  0  0  0  0
 17 38  1  0  0  0  0
 18 19  2  0  0  0  0
 18 23  1  0  0  0  0
 19 20  1  0  0  0  0
 20 21  2  0  0  0  0
 20 39  1  0  0  0  0
 21 22  1  0  0  0  0
 21 40  1  0  0  0  0
 22 23  2  0  0  0  0
 23 24  1  0  0  0  0
 24 25  2  0  0  0  0
 24 29  1  0  0  0  0
 25 26  1  0  0  0  0
 25 41  1  0  0  0  0
 26 27  2  0  0  0  0
 26 42  1  0  0  0  0
 27 28  1  0  0  0  0
 28 29  2  0  0  0  0
 28 43  1  0  0  0  0
 29 44  1  0  0  0  0
M  END
$$$$
