
 OpenBabel01122422523D

 45 48  0  0  0  0  0  0  0  0999 V2000
    1.1351    0.4088   -0.1593 O   0  0  0  0  0  0  0  0  0  0  0  0
    2.3364    0.1505   -0.1771 C   0  0  0  0  0  0  0  0  0  0  0  0
    2.8933   -1.0660   -0.4846 N   0  0  0  0  0  0  0  0  0  0  0  0
    2.2340   -2.2349   -0.9039 C   0  0  0  0  0  0  0  0  0  0  0  0
    0.8964   -2.2699   -1.2982 C   0  0  0  0  0  0  0  0  0  0  0  0
    0.2835   -3.4847   -1.6244 C   0  0  0  0  0  0  0  0  0  0  0  0
    1.0051   -4.6812   -1.5431 C   0  0  0  0  0  0  0  0  0  0  0  0
    0.3640   -5.9159   -1.8002 N   0  0  0  0  0  0  0  0  0  0  0  0
   -0.7780   -6.1131   -2.5464 C   0  0  0  0  0  0  0  0  0  0  0  0
   -1.0169   -7.4659   -2.5211 C   0  0  0  0  0  0  0  0  0  0  0  0
   -0.0880   -8.1088   -1.7549 N   0  0  0  0  0  0  0  0  0  0  0  0
    0.7240   -7.1625   -1.3368 C   0  0  0  0  0  0  0  0  0  0  0  0
    2.3546   -4.6343   -1.1902 C   0  0  0  0  0  0  0  0  0  0  0  0
    3.1127   -5.7394   -1.1666 F   0  0  0  0  0  0  0  0  0  0  0  0
    2.9721   -3.4218   -0.8941 C   0  0  0  0  0  0  0  0  0  0  0  0
    3.2131    1.1193    0.2501 N   0  0  0  0  0  0  0  0  0  0  0  0
    4.5820    1.1782    0.2018 C   0  0  0  0  0  0  0  0  0  0  0  0
    5.3334    0.5736   -0.7329 C   0  0  0  0  0  0  0  0  0  0  0  0
    6.7204    0.4698   -0.6434 N   0  0  0  0  0  0  0  0  0  0  0  0
    7.4491   -0.3188   -1.6115 C   0  0  0  0  0  0  0  0  0  0  0  0
    8.5772   -1.0649   -1.2422 C   0  0  0  0  0  0  0  0  0  0  0  0
    9.2766   -1.8327   -2.1782 C   0  0  0  0  0  0  0  0  0  0  0  0
    8.8599   -1.8686   -3.5043 C   0  0  0  0  0  0  0  0  0  0  0  0
    7.7304   -1.1545   -3.8906 C   0  0  0  0  0  0  0  0  0  0  0  0
    7.0257   -0.3937   -2.9512 C   0  0  0  0  0  0  0  0  0  0  0  0
    7.4024    1.0689    0.4349 C   0  0  0  0  0  0  0  0  0  0  0  0
    8.6139    1.0469    0.6556 O   0  0  0  0  0  0  0  0  0  0  0  0
    6.5690    1.8627    1.3822 C   0  0  0  0  0  0  0  0  0  0  0  0
    5.2395    1.9214    1.2483 C   0  0  0  0  0  0  0  0  0  0  0  0
    3.8333   -1.2062   -0.1430 H   0  0  0  0  0  0  0  0  0  0  0  0
    0.2945   -1.3667   -1.3419 H   0  0  0  0  0  0  0  0  0  0  0  0
   -0.7738   -3.4650   -1.8769 H   0  0  0  0  0  0  0  0  0  0  0  0
   -1.2839   -5.3140   -3.0670 H   0  0  0  0  0  0  0  0  0  0  0  0
   -1.8084   -8.0086   -3.0216 H   0  0  0  0  0  0  0  0  0  0  0  0
    1.5568   -7.3222   -0.6647 H   0  0  0  0  0  0  0  0  0  0  0  0
    4.0290   -3.4333   -0.6415 H   0  0  0  0  0  0  0  0  0  0  0  0
    2.7230    1.8423    0.7708 H   0  0  0  0  0  0  0  0  0  0  0  0
    4.8661    0.0688   -1.5715 H   0  0  0  0  0  0  0  0  0  0  0  0
    8.9198   -1.0939   -0.2110 H   0  0  0  0  0  0  0  0  0  0  0  0
   10.1497   -2.3992   -1.8641 H   0  0  0  0  0  0  0  0  0  0  0  0
    9.4172   -2.4493   -4.2349 H   0  0  0  0  0  0  0  0  0  0  0  0
    7.4042   -1.1756   -4.9274 H   0  0  0  0  0  0  0  0  0  0  0  0
    6.1734    0.1782   -3.3078 H   0  0  0  0  0  0  0  0  0  0  0  0
    7.0984    2.3806    2.1712 H   0  0  0  0  0  0  0  0  0  0  0  0
    4.6502    2.5051    1.9460 H   0  0  0  0  0  0  0  0  0  0  0  0
  1  2  2  0  0  0  0
  2  3  1  0  0  0  0
  2 16  1  0  0  0  0
  3  4  1  0  0  0  0
  3 30  1  0  0  0  0
  4  5  2  0  0  0  0
  4 15  1  0  0  0  0
  5  6  1  0  0  0  0
  5 31  1  0  0  0  0
  6  7  2  0  0  0  0
  6 32  1  0  0  0  0
  7  8  1  0  0  0  0
  7 13  1  0  0  0  0
  8  9  1  0  0  0  0
  8 12  1  0  0  0  0
  9 10  2  0  0  0  0
  9 33  1  0  0  0  0
 10 11  1  0  0  0  0
 10 34  1  0  0  0  0
 11 12  2  0  0  0  0
 12 35  1  0  0  0  0
 13 14  1  0  0  0  0
 13 15  2  0  0  0  0
 15 36  1  0  0  0  0
 16 17  1  0  0  0  0
 16 37  1  0  0  0  0
 17 18  2  0  0  0  0
 17 29  1  0  0  0  0
 18 19  1  0  0  0  0
 18 38  1  0  0  0  0
 19 20  1  0  0  0  0
 19 26  1  0  0  0  0
 20 21  2  0  0  0  0
 20 25  1  0  0  0  0
 21 22  1  0  0  0  0
 21 39  1  0  0  0  0
 22 23  2  0  0  0  0
 22 40  1  0  0  0  0
 23 24  1  0  0  0  0
 23 41  1  0  0  0  0
 24 25  2  0  0  0  0
 24 42  1  0  0  0  0
 25 43  1  0  0  0  0
 26 27  2  0  0  0  0
 26 28  1  0  0  0  0
 28 29  2  0  0  0  0
 28 44  1  0  0  0  0
 29 45  1  0  0  0  0
M  END
$$$$
