
 OpenBabel01122422523D

 49 52  0  0  0  0  0  0  0  0999 V2000
    6.2292    4.5103   -2.4456 C   0  0  0  0  0  0  0  0  0  0  0  0
    5.8839    3.3839   -1.6379 O   0  0  0  0  0  0  0  0  0  0  0  0
    6.7274    3.1604   -0.5993 C   0  0  0  0  0  0  0  0  0  0  0  0
    7.7112    3.8277   -0.3211 O   0  0  0  0  0  0  0  0  0  0  0  0
    6.2827    1.9808    0.1940 C   0  0  0  0  0  0  0  0  0  0  0  0
    5.1507    1.2398   -0.1467 C   0  0  0  0  0  0  0  0  0  0  0  0
    4.7378    0.2016    0.6797 C   0  0  0  0  0  0  0  0  0  0  0  0
    5.4384   -0.0844    1.8571 C   0  0  0  0  0  0  0  0  0  0  0  0
    6.6095    0.6003    2.2184 C   0  0  0  0  0  0  0  0  0  0  0  0
    7.3307    0.3406    3.5046 C   0  0  0  0  0  0  0  0  0  0  0  0
    7.8856    1.4594    4.1835 C   0  0  0  0  0  0  0  0  0  0  0  0
    8.5212    1.3599    5.4223 C   0  0  0  0  0  0  0  0  0  0  0  0
    8.6018    0.1313    6.0496 C   0  0  0  0  0  0  0  0  0  0  0  0
    8.0900   -0.9958    5.4127 C   0  0  0  0  0  0  0  0  0  0  0  0
    7.4802   -0.9285    4.1345 C   0  0  0  0  0  0  0  0  0  0  0  0
    7.0387   -2.2648    3.5546 C   0  0  0  0  0  0  0  0  0  0  0  0
    7.6794   -2.5744    2.2994 N   0  0  0  0  0  0  0  0  0  0  0  0
    7.3967   -3.7404    1.6148 C   0  0  0  0  0  0  0  0  0  0  0  0
    6.5817   -4.5694    1.9938 O   0  0  0  0  0  0  0  0  0  0  0  0
    8.1490   -3.9437    0.3347 C   0  0  0  0  0  0  0  0  0  0  0  0
    9.4034   -3.3435    0.1316 C   0  0  0  0  0  0  0  0  0  0  0  0
   10.0766   -3.4493   -1.0914 C   0  0  0  0  0  0  0  0  0  0  0  0
    9.4690   -4.2195   -2.0845 C   0  0  0  0  0  0  0  0  0  0  0  0
    9.8368   -4.4886   -3.3811 N   0  0  0  0  0  0  0  0  0  0  0  0
    9.0529   -5.3960   -3.9906 N   0  0  0  0  0  0  0  0  0  0  0  0
    8.1276   -5.6326   -3.0760 C   0  0  0  0  0  0  0  0  0  0  0  0
    7.2234   -6.5516   -3.4153 O   0  0  0  0  0  0  0  0  0  0  0  0
    8.2754   -4.9091   -1.8840 C   0  0  0  0  0  0  0  0  0  0  0  0
    7.5913   -4.7701   -0.6614 C   0  0  0  0  0  0  0  0  0  0  0  0
    7.0160    1.6353    1.3451 C   0  0  0  0  0  0  0  0  0  0  0  0
    5.3973    4.7040   -3.1287 H   0  0  0  0  0  0  0  0  0  0  0  0
    7.1209    4.2830   -3.0370 H   0  0  0  0  0  0  0  0  0  0  0  0
    6.3858    5.4050   -1.8344 H   0  0  0  0  0  0  0  0  0  0  0  0
    4.5690    1.4706   -1.0352 H   0  0  0  0  0  0  0  0  0  0  0  0
    3.8480   -0.3724    0.4309 H   0  0  0  0  0  0  0  0  0  0  0  0
    5.0086   -0.8405    2.5042 H   0  0  0  0  0  0  0  0  0  0  0  0
    7.8085    2.4602    3.7600 H   0  0  0  0  0  0  0  0  0  0  0  0
    8.9293    2.2484    5.8975 H   0  0  0  0  0  0  0  0  0  0  0  0
    9.0611    0.0469    7.0308 H   0  0  0  0  0  0  0  0  0  0  0  0
    8.1714   -1.9515    5.9303 H   0  0  0  0  0  0  0  0  0  0  0  0
    5.9540   -2.3278    3.4567 H   0  0  0  0  0  0  0  0  0  0  0  0
    7.3041   -3.0810    4.2364 H   0  0  0  0  0  0  0  0  0  0  0  0
    8.2289   -1.8451    1.8627 H   0  0  0  0  0  0  0  0  0  0  0  0
    9.8896   -2.7950    0.9339 H   0  0  0  0  0  0  0  0  0  0  0  0
   11.0371   -2.9676   -1.2443 H   0  0  0  0  0  0  0  0  0  0  0  0
   10.6156   -4.0940   -3.8965 H   0  0  0  0  0  0  0  0  0  0  0  0
    7.5252   -6.8807   -4.2798 H   0  0  0  0  0  0  0  0  0  0  0  0
    6.6423   -5.2735   -0.5016 H   0  0  0  0  0  0  0  0  0  0  0  0
    7.9070    2.2210    1.5704 H   0  0  0  0  0  0  0  0  0  0  0  0
  1  2  1  0  0  0  0
  1 31  1  0  0  0  0
  1 32  1  0  0  0  0
  1 33  1  0  0  0  0
  2  3  1  0  0  0  0
  3  4  2  0  0  0  0
  3  5  1  0  0  0  0
  5  6  2  0  0  0  0
  5 30  1  0  0  0  0
  6  7  1  0  0  0  0
  6 34  1  0  0  0  0
  7  8  2  0  0  0  0
  7 35  1  0  0  0  0
  8  9  1  0  0  0  0
  8 36  1  0  0  0  0
  9 10  1  0  0  0  0
  9 30  2  0  0  0  0
 10 11  2  0  0  0  0
 10 15  1  0  0  0  0
 11 12  1  0  0  0  0
 11 37  1  0  0  0  0
 12 13  2  0  0  0  0
 12 38  1  0  0  0  0
 13 14  1  0  0  0  0
 13 39  1  0  0  0  0
 14 15  2  0  0  0  0
 14 40  1  0  0  0  0
 15 16  1  0  0  0  0
 16 17  1  0  0  0  0
 16 41  1  0  0  0  0
 16 42  1  0  0  0  0
 17 18  1  0  0  0  0
 17 43  1  0  0  0  0
 18 19  2  0  0  0  0
 18 20  1  0  0  0  0
 20 21  2  0  0  0  0
 20 29  1  0  0  0  0
 21 22  1  0  0  0  0
 21 44  1  0  0  0  0
 22 23  2  0  0  0  0
 22 45  1  0  0  0  0
 23 24  1  0  0  0  0
 23 28  1  0  0  0  0
 24 25  1  0  0  0  0
 24 46  1  0  0  0  0
 25 26  2  0  0  0  0
 26 27  1  0  0  0  0
 26 28  1  0  0  0  0
 27 47  1  0  0  0  0
 28 29  2  0  0  0  0
 29 48  1  0  0  0  0
 30 49  1  0  0  0  0
M  END
$$$$
