
 OpenBabel01122422463D

 50 53  0  0  0  0  0  0  0  0999 V2000
    0.4035   -0.0188    0.8070 C   0  0  0  0  0  0  0  0  0  0  0  0
    1.8615    0.1278    0.5589 C   0  0  0  0  0  0  0  0  0  0  0  0
    2.5712    1.2689    0.5348 C   0  0  0  0  0  0  0  0  0  0  0  0
    3.8967    0.9676    0.3900 N   0  0  0  0  0  0  0  0  0  0  0  0
    4.0657   -0.4272    0.3321 C   0  0  0  0  0  0  0  0  0  0  0  0
    5.1283   -1.0063    0.1736 O   0  0  0  0  0  0  0  0  0  0  0  0
    2.7393   -0.9466    0.4401 N   0  0  0  0  0  0  0  0  0  0  0  0
    2.4586   -2.3183    0.2947 C   0  0  0  0  0  0  0  0  0  0  0  0
    1.5916   -2.7551   -0.7121 C   0  0  0  0  0  0  0  0  0  0  0  0
    1.3515   -4.1150   -0.8959 C   0  0  0  0  0  0  0  0  0  0  0  0
    1.9660   -5.0512   -0.0657 C   0  0  0  0  0  0  0  0  0  0  0  0
    2.8531   -4.6325    0.9354 C   0  0  0  0  0  0  0  0  0  0  0  0
    3.5779   -5.5925    1.8124 C   0  0  0  0  0  0  0  0  0  0  0  0
    4.3406   -5.1684    2.6933 O   0  0  0  0  0  0  0  0  0  0  0  0
    3.3837   -6.9352    1.6012 N   0  0  0  0  0  0  0  0  0  0  0  0
    4.0876   -7.9140    2.3972 C   0  0  0  0  0  0  0  0  0  0  0  0
    5.4161   -8.3070    1.8006 C   0  0  0  0  0  0  0  0  0  0  0  0
    6.5385   -7.5805    2.1801 C   0  0  0  0  0  0  0  0  0  0  0  0
    7.7831   -7.9329    1.6654 C   0  0  0  0  0  0  0  0  0  0  0  0
    8.9617   -7.3016    1.9911 O   0  0  0  0  0  0  0  0  0  0  0  0
    8.9378   -5.9557    2.2867 C   0  0  0  0  0  0  0  0  0  0  0  0
    8.0349   -5.0623    1.6926 C   0  0  0  0  0  0  0  0  0  0  0  0
    8.0654   -3.7085    2.0225 C   0  0  0  0  0  0  0  0  0  0  0  0
    9.0021   -3.2532    2.9425 C   0  0  0  0  0  0  0  0  0  0  0  0
    9.0357   -1.9519    3.2514 F   0  0  0  0  0  0  0  0  0  0  0  0
    9.8970   -4.1396    3.5347 C   0  0  0  0  0  0  0  0  0  0  0  0
   10.7804   -3.6943    4.4403 F   0  0  0  0  0  0  0  0  0  0  0  0
    9.8849   -5.4900    3.2002 C   0  0  0  0  0  0  0  0  0  0  0  0
    7.8717   -9.0064    0.7912 C   0  0  0  0  0  0  0  0  0  0  0  0
    6.7042   -9.6692    0.4498 C   0  0  0  0  0  0  0  0  0  0  0  0
    5.4801   -9.3475    0.9317 N   0  0  0  0  0  0  0  0  0  0  0  0
    3.0939   -3.2596    1.1091 C   0  0  0  0  0  0  0  0  0  0  0  0
   -0.0580    0.9508    1.0248 H   0  0  0  0  0  0  0  0  0  0  0  0
    0.2247   -0.6645    1.6738 H   0  0  0  0  0  0  0  0  0  0  0  0
   -0.1128   -0.4397   -0.0590 H   0  0  0  0  0  0  0  0  0  0  0  0
    2.2268    2.2874    0.6319 H   0  0  0  0  0  0  0  0  0  0  0  0
    4.6676    1.6146    0.3213 H   0  0  0  0  0  0  0  0  0  0  0  0
    1.1541   -2.0452   -1.4099 H   0  0  0  0  0  0  0  0  0  0  0  0
    0.7051   -4.4496   -1.7035 H   0  0  0  0  0  0  0  0  0  0  0  0
    1.7437   -6.0976   -0.2386 H   0  0  0  0  0  0  0  0  0  0  0  0
    2.8802   -7.2987    0.8050 H   0  0  0  0  0  0  0  0  0  0  0  0
    3.4427   -8.7920    2.4956 H   0  0  0  0  0  0  0  0  0  0  0  0
    4.2422   -7.4943    3.3961 H   0  0  0  0  0  0  0  0  0  0  0  0
    6.4063   -6.7360    2.8462 H   0  0  0  0  0  0  0  0  0  0  0  0
    7.2794   -5.4153    0.9990 H   0  0  0  0  0  0  0  0  0  0  0  0
    7.3679   -3.0138    1.5657 H   0  0  0  0  0  0  0  0  0  0  0  0
   10.5922   -6.1661    3.6690 H   0  0  0  0  0  0  0  0  0  0  0  0
    8.8241   -9.3030    0.3716 H   0  0  0  0  0  0  0  0  0  0  0  0
    6.7284  -10.5040   -0.2450 H   0  0  0  0  0  0  0  0  0  0  0  0
    3.7669   -2.9260    1.8989 H   0  0  0  0  0  0  0  0  0  0  0  0
  1  2  1  0  0  0  0
  1 33  1  0  0  0  0
  1 34  1  0  0  0  0
  1 35  1  0  0  0  0
  2  3  2  0  0  0  0
  2  7  1  0  0  0  0
  3  4  1  0  0  0  0
  3 36  1  0  0  0  0
  4  5  1  0  0  0  0
  4 37  1  0  0  0  0
  5  6  2  0  0  0  0
  5  7  1  0  0  0  0
  7  8  1  0  0  0  0
  8  9  2  0  0  0  0
  8 32  1  0  0  0  0
  9 10  1  0  0  0  0
  9 38  1  0  0  0  0
 10 11  2  0  0  0  0
 10 39  1  0  0  0  0
 11 12  1  0  0  0  0
 11 40  1  0  0  0  0
 12 13  1  0  0  0  0
 12 32  2  0  0  0  0
 13 14  2  0  0  0  0
 13 15  1  0  0  0  0
 15 16  1  0  0  0  0
 15 41  1  0  0  0  0
 16 17  1  0  0  0  0
 16 42  1  0  0  0  0
 16 43  1  0  0  0  0
 17 18  2  0  0  0  0
 17 31  1  0  0  0  0
 18 19  1  0  0  0  0
 18 44  1  0  0  0  0
 19 20  1  0  0  0  0
 19 29  2  0  0  0  0
 20 21  1  0  0  0  0
 21 22  2  0  0  0  0
 21 28  1  0  0  0  0
 22 23  1  0  0  0  0
 22 45  1  0  0  0  0
 23 24  2  0  0  0  0
 23 46  1  0  0  0  0
 24 25  1  0  0  0  0
 24 26  1  0  0  0  0
 26 27  1  0  0  0  0
 26 28  2  0  0  0  0
 28 47  1  0  0  0  0
 29 30  1  0  0  0  0
 29 48  1  0  0  0  0
 30 31  2  0  0  0  0
 30 49  1  0  0  0  0
 32 50  1  0  0  0  0
M  END
$$$$
