
 OpenBabel01122422523D

 47 50  0  0  0  0  0  0  0  0999 V2000
    1.9746   -0.0504    1.1565 O   0  0  0  0  0  0  0  0  0  0  0  0
    2.3078    0.1572   -0.0084 C   0  0  0  0  0  0  0  0  0  0  0  0
    2.9741   -0.9535   -0.8204 C   0  0  0  0  0  0  0  0  0  0  0  0
    1.9882   -1.8320   -1.4299 N   0  0  0  0  0  0  0  0  0  0  0  0
    1.5724   -1.6087   -2.7206 C   0  0  0  0  0  0  0  0  0  0  0  0
    1.9821   -0.6602   -3.3845 O   0  0  0  0  0  0  0  0  0  0  0  0
    0.6443   -2.5696   -3.3525 C   0  0  0  0  0  0  0  0  0  0  0  0
    0.6757   -2.7729   -4.7353 C   0  0  0  0  0  0  0  0  0  0  0  0
    1.6011   -2.1360   -5.5338 O   0  0  0  0  0  0  0  0  0  0  0  0
   -0.2535   -3.6265   -5.3595 C   0  0  0  0  0  0  0  0  0  0  0  0
   -0.2734   -3.8531   -6.7535 C   0  0  0  0  0  0  0  0  0  0  0  0
   -1.2539   -4.6531   -7.3342 C   0  0  0  0  0  0  0  0  0  0  0  0
   -2.2173   -5.2430   -6.5275 C   0  0  0  0  0  0  0  0  0  0  0  0
   -2.1821   -5.0436   -5.1428 C   0  0  0  0  0  0  0  0  0  0  0  0
   -1.2162   -4.2473   -4.5376 C   0  0  0  0  0  0  0  0  0  0  0  0
   -1.2420   -4.0736   -3.2008 N   0  0  0  0  0  0  0  0  0  0  0  0
   -0.3277   -3.2440   -2.6381 C   0  0  0  0  0  0  0  0  0  0  0  0
    2.0521    1.3113   -0.7363 N   0  0  0  0  0  0  0  0  0  0  0  0
    1.5337    2.5179   -0.2100 C   0  0  0  0  0  0  0  0  0  0  0  0
    1.5462    2.8156    1.1557 C   0  0  0  0  0  0  0  0  0  0  0  0
    0.9833    4.0001    1.6346 C   0  0  0  0  0  0  0  0  0  0  0  0
    0.3907    4.8981    0.7509 C   0  0  0  0  0  0  0  0  0  0  0  0
    0.3766    4.6320   -0.6252 C   0  0  0  0  0  0  0  0  0  0  0  0
   -0.3156    5.5304   -1.5474 C   0  0  0  0  0  0  0  0  0  0  0  0
   -0.9645    6.6428   -1.1642 N   0  0  0  0  0  0  0  0  0  0  0  0
   -1.5549    7.1081   -2.3357 O   0  0  0  0  0  0  0  0  0  0  0  0
   -1.2014    6.2359   -3.3211 C   0  0  0  0  0  0  0  0  0  0  0  0
   -1.7583    6.5030   -4.6656 C   0  0  0  0  0  0  0  0  0  0  0  0
   -3.1164    6.3972   -4.6759 F   0  0  0  0  0  0  0  0  0  0  0  0
   -1.4735    7.7640   -5.0932 F   0  0  0  0  0  0  0  0  0  0  0  0
   -0.4259    5.2595   -2.8948 N   0  0  0  0  0  0  0  0  0  0  0  0
    0.9831    3.4514   -1.0989 C   0  0  0  0  0  0  0  0  0  0  0  0
    3.5878   -1.5563   -0.1431 H   0  0  0  0  0  0  0  0  0  0  0  0
    3.6362   -0.5230   -1.5788 H   0  0  0  0  0  0  0  0  0  0  0  0
    1.6778   -2.6317   -0.8931 H   0  0  0  0  0  0  0  0  0  0  0  0
    2.0027   -1.4025   -5.0184 H   0  0  0  0  0  0  0  0  0  0  0  0
    0.4756   -3.3869   -7.3914 H   0  0  0  0  0  0  0  0  0  0  0  0
   -1.2688   -4.8030   -8.4107 H   0  0  0  0  0  0  0  0  0  0  0  0
   -2.9991   -5.8557   -6.9692 H   0  0  0  0  0  0  0  0  0  0  0  0
   -2.9426   -5.5111   -4.5211 H   0  0  0  0  0  0  0  0  0  0  0  0
   -0.4455   -3.1231   -1.5658 H   0  0  0  0  0  0  0  0  0  0  0  0
    2.0849    1.2196   -1.7494 H   0  0  0  0  0  0  0  0  0  0  0  0
    1.9968    2.1420    1.8791 H   0  0  0  0  0  0  0  0  0  0  0  0
    0.9912    4.2094    2.7017 H   0  0  0  0  0  0  0  0  0  0  0  0
   -0.0759    5.7975    1.1504 H   0  0  0  0  0  0  0  0  0  0  0  0
   -1.3603    5.7985   -5.4006 H   0  0  0  0  0  0  0  0  0  0  0  0
    0.9785    3.2453   -2.1668 H   0  0  0  0  0  0  0  0  0  0  0  0
  1  2  2  0  0  0  0
  2  3  1  0  0  0  0
  2 18  1  0  0  0  0
  3  4  1  0  0  0  0
  3 33  1  0  0  0  0
  3 34  1  0  0  0  0
  4  5  1  0  0  0  0
  4 35  1  0  0  0  0
  5  6  2  0  0  0  0
  5  7  1  0  0  0  0
  7  8  2  0  0  0  0
  7 17  1  0  0  0  0
  8  9  1  0  0  0  0
  8 10  1  0  0  0  0
  9 36  1  0  0  0  0
 10 11  2  0  0  0  0
 10 15  1  0  0  0  0
 11 12  1  0  0  0  0
 11 37  1  0  0  0  0
 12 13  2  0  0  0  0
 12 38  1  0  0  0  0
 13 14  1  0  0  0  0
 13 39  1  0  0  0  0
 14 15  2  0  0  0  0
 14 40  1  0  0  0  0
 15 16  1  0  0  0  0
 16 17  2  0  0  0  0
 17 41  1  0  0  0  0
 18 19  1  0  0  0  0
 18 42  1  0  0  0  0
 19 20  2  0  0  0  0
 19 32  1  0  0  0  0
 20 21  1  0  0  0  0
 20 43  1  0  0  0  0
 21 22  2  0  0  0  0
 21 44  1  0  0  0  0
 22 23  1  0  0  0  0
 22 45  1  0  0  0  0
 23 24  1  0  0  0  0
 23 32  2  0  0  0  0
 24 25  2  0  0  0  0
 24 31  1  0  0  0  0
 25 26  1  0  0  0  0
 26 27  1  0  0  0  0
 27 28  1  0  0  0  0
 27 31  2  0  0  0  0
 28 29  1  0  0  0  0
 28 30  1  0  0  0  0
 28 46  1  0  0  0  0
 32 47  1  0  0  0  0
M  END
$$$$
