
 OpenBabel01122422523D

 49 52  0  0  1  0  0  0  0  0999 V2000
    0.8667   -0.0073    0.1083 C   0  0  0  0  0  0  0  0  0  0  0  0
    2.3986    0.0062   -0.0371 C   0  0  3  0  0  0  0  0  0  0  0  0
    2.8655   -1.0568   -0.9233 N   0  0  0  0  0  0  0  0  0  0  0  0
    2.7147   -2.3655   -0.5124 C   0  0  0  0  0  0  0  0  0  0  0  0
    2.3189   -2.6314    0.6195 O   0  0  0  0  0  0  0  0  0  0  0  0
    3.0707   -3.2807   -1.4647 N   0  0  0  0  0  0  0  0  0  0  0  0
    2.8646   -4.6747   -1.3222 C   0  0  0  0  0  0  0  0  0  0  0  0
    1.8797   -5.2194   -0.4943 C   0  0  0  0  0  0  0  0  0  0  0  0
    1.7478   -6.5982   -0.3787 C   0  0  0  0  0  0  0  0  0  0  0  0
    2.5931   -7.4005   -1.1216 C   0  0  0  0  0  0  0  0  0  0  0  0
    2.4310   -8.7706   -0.9741 O   0  0  0  0  0  0  0  0  0  0  0  0
    2.7330   -9.5725   -2.0496 C   0  0  0  0  0  0  0  0  0  0  0  0
    2.4315   -9.2222   -3.3734 C   0  0  0  0  0  0  0  0  0  0  0  0
    2.7425  -10.0921   -4.4195 C   0  0  0  0  0  0  0  0  0  0  0  0
    3.3202  -11.3293   -4.1461 C   0  0  0  0  0  0  0  0  0  0  0  0
    3.5821  -11.6898   -2.8266 C   0  0  0  0  0  0  0  0  0  0  0  0
    4.1193  -12.8916   -2.5736 F   0  0  0  0  0  0  0  0  0  0  0  0
    3.2887  -10.8230   -1.7799 C   0  0  0  0  0  0  0  0  0  0  0  0
    3.5366  -11.1959   -0.5163 F   0  0  0  0  0  0  0  0  0  0  0  0
    3.5534   -6.9169   -1.9466 N   0  0  0  0  0  0  0  0  0  0  0  0
    3.6541   -5.5706   -2.0351 C   0  0  0  0  0  0  0  0  0  0  0  0
    2.8531    1.3358   -0.5430 C   0  0  0  0  0  0  0  0  0  0  0  0
    2.1682    2.1244   -1.3530 N   0  0  0  0  0  0  0  0  0  0  0  0
    2.7409    3.3603   -1.2663 N   0  0  0  0  0  0  0  0  0  0  0  0
    3.7729    3.3466   -0.4398 N   0  0  0  0  0  0  0  0  0  0  0  0
    3.9397    2.0545   -0.0642 N   0  0  0  0  0  0  0  0  0  0  0  0
    5.0993    1.6493    0.6461 C   0  0  0  0  0  0  0  0  0  0  0  0
    5.8185    2.6010    1.3817 C   0  0  0  0  0  0  0  0  0  0  0  0
    6.9746    2.2240    2.0685 C   0  0  0  0  0  0  0  0  0  0  0  0
    7.4331    0.9099    1.9985 C   0  0  0  0  0  0  0  0  0  0  0  0
    6.7379   -0.0302    1.2434 C   0  0  0  0  0  0  0  0  0  0  0  0
    5.5710    0.3354    0.5695 C   0  0  0  0  0  0  0  0  0  0  0  0
    0.4960   -0.9689    0.4756 H   0  0  0  0  0  0  0  0  0  0  0  0
    0.3680    0.1835   -0.8488 H   0  0  0  0  0  0  0  0  0  0  0  0
    0.5406    0.7603    0.8192 H   0  0  0  0  0  0  0  0  0  0  0  0
    2.8155   -0.1791    0.9603 H   0  0  0  0  0  0  0  0  0  0  0  0
    2.9437   -0.8622   -1.9129 H   0  0  0  0  0  0  0  0  0  0  0  0
    3.7572   -2.9784   -2.1408 H   0  0  0  0  0  0  0  0  0  0  0  0
    1.1920   -4.5886    0.0634 H   0  0  0  0  0  0  0  0  0  0  0  0
    0.9929   -7.0335    0.2698 H   0  0  0  0  0  0  0  0  0  0  0  0
    1.9701   -8.2651   -3.6002 H   0  0  0  0  0  0  0  0  0  0  0  0
    2.5325   -9.7966   -5.4456 H   0  0  0  0  0  0  0  0  0  0  0  0
    3.5633  -12.0167   -4.9497 H   0  0  0  0  0  0  0  0  0  0  0  0
    4.4343   -5.2285   -2.7084 H   0  0  0  0  0  0  0  0  0  0  0  0
    5.4849    3.6354    1.4516 H   0  0  0  0  0  0  0  0  0  0  0  0
    7.5206    2.9578    2.6566 H   0  0  0  0  0  0  0  0  0  0  0  0
    8.3394    0.6202    2.5247 H   0  0  0  0  0  0  0  0  0  0  0  0
    7.1111   -1.0490    1.1666 H   0  0  0  0  0  0  0  0  0  0  0  0
    5.0985   -0.4199   -0.0459 H   0  0  0  0  0  0  0  0  0  0  0  0
  1  2  1  0  0  0  0
  1 33  1  0  0  0  0
  1 34  1  0  0  0  0
  1 35  1  0  0  0  0
  2  3  1  0  0  0  0
  2 22  1  0  0  0  0
  2 36  1  0  0  0  0
  3  4  1  0  0  0  0
  3 37  1  0  0  0  0
  4  5  2  0  0  0  0
  4  6  1  0  0  0  0
  6  7  1  0  0  0  0
  6 38  1  0  0  0  0
  7  8  2  0  0  0  0
  7 21  1  0  0  0  0
  8  9  1  0  0  0  0
  8 39  1  0  0  0  0
  9 10  2  0  0  0  0
  9 40  1  0  0  0  0
 10 11  1  0  0  0  0
 10 20  1  0  0  0  0
 11 12  1  0  0  0  0
 12 13  2  0  0  0  0
 12 18  1  0  0  0  0
 13 14  1  0  0  0  0
 13 41  1  0  0  0  0
 14 15  2  0  0  0  0
 14 42  1  0  0  0  0
 15 16  1  0  0  0  0
 15 43  1  0  0  0  0
 16 17  1  0  0  0  0
 16 18  2  0  0  0  0
 18 19  1  0  0  0  0
 20 21  2  0  0  0  0
 21 44  1  0  0  0  0
 22 23  2  0  0  0  0
 22 26  1  0  0  0  0
 23 24  1  0  0  0  0
 24 25  2  0  0  0  0
 25 26  1  0  0  0  0
 26 27  1  0  0  0  0
 27 28  2  0  0  0  0
 27 32  1  0  0  0  0
 28 29  1  0  0  0  0
 28 45  1  0  0  0  0
 29 30  2  0  0  0  0
 29 46  1  0  0  0  0
 30 31  1  0  0  0  0
 30 47  1  0  0  0  0
 31 32  2  0  0  0  0
 31 48  1  0  0  0  0
 32 49  1  0  0  0  0
M  END
$$$$
