
 OpenBabel01122422523D

 54 57  0  0  0  0  0  0  0  0999 V2000
    1.0585    0.3222   -0.2193 C   0  0  0  0  0  0  0  0  0  0  0  0
    2.5237    0.1082   -0.1611 C   0  0  0  0  0  0  0  0  0  0  0  0
    3.3048   -1.0427   -0.1309 C   0  0  0  0  0  0  0  0  0  0  0  0
    2.8999   -2.4487   -0.1497 C   0  0  0  0  0  0  0  0  0  0  0  0
    1.7278   -2.8094   -0.1945 O   0  0  0  0  0  0  0  0  0  0  0  0
    3.9615   -3.3306   -0.1125 N   0  0  0  0  0  0  0  0  0  0  0  0
    3.7819   -4.7587   -0.2286 C   0  0  0  0  0  0  0  0  0  0  0  0
    4.8159   -5.5419    0.5450 C   0  0  0  0  0  0  0  0  0  0  0  0
    4.9843   -5.3298    1.9188 C   0  0  0  0  0  0  0  0  0  0  0  0
    5.8723   -6.1140    2.6519 C   0  0  0  0  0  0  0  0  0  0  0  0
    6.5781   -7.1449    2.0269 C   0  0  0  0  0  0  0  0  0  0  0  0
    6.4115   -7.4204    0.6578 C   0  0  0  0  0  0  0  0  0  0  0  0
    7.0529   -8.5907    0.0146 C   0  0  0  0  0  0  0  0  0  0  0  0
    7.2639   -9.7923    0.6975 C   0  0  0  0  0  0  0  0  0  0  0  0
    7.7994  -10.8865    0.0209 C   0  0  0  0  0  0  0  0  0  0  0  0
    8.1185  -10.7617   -1.3224 C   0  0  0  0  0  0  0  0  0  0  0  0
    7.8880   -9.5410   -1.9326 C   0  0  0  0  0  0  0  0  0  0  0  0
    7.3623   -8.4646   -1.3017 N   0  0  0  0  0  0  0  0  0  0  0  0
    5.5470   -6.5759   -0.0715 C   0  0  0  0  0  0  0  0  0  0  0  0
    4.6292   -0.6788   -0.0762 N   0  0  0  0  0  0  0  0  0  0  0  0
    4.6985    0.6391   -0.0659 N   0  0  0  0  0  0  0  0  0  0  0  0
    3.4440    1.1291   -0.1216 N   0  0  0  0  0  0  0  0  0  0  0  0
    3.2303    2.5708   -0.1360 C   0  0  0  0  0  0  0  0  0  0  0  0
    4.5495    3.3447   -0.0829 C   0  0  0  0  0  0  0  0  0  0  0  0
    4.3695    4.7649   -0.1174 O   0  0  0  0  0  0  0  0  0  0  0  0
    5.5470    5.4827   -0.1081 C   0  0  0  0  0  0  0  0  0  0  0  0
    6.8342    4.9298   -0.0408 C   0  0  0  0  0  0  0  0  0  0  0  0
    7.9627    5.7514   -0.0515 C   0  0  0  0  0  0  0  0  0  0  0  0
    7.8095    7.1273   -0.1267 C   0  0  0  0  0  0  0  0  0  0  0  0
    8.8952    7.9119   -0.1397 F   0  0  0  0  0  0  0  0  0  0  0  0
    6.5440    7.6963   -0.1898 C   0  0  0  0  0  0  0  0  0  0  0  0
    5.4111    6.8738   -0.1842 C   0  0  0  0  0  0  0  0  0  0  0  0
    0.5114   -0.6162   -0.3437 H   0  0  0  0  0  0  0  0  0  0  0  0
    0.7931    0.9672   -1.0632 H   0  0  0  0  0  0  0  0  0  0  0  0
    0.7019    0.7949    0.7016 H   0  0  0  0  0  0  0  0  0  0  0  0
    4.8945   -2.9431   -0.2047 H   0  0  0  0  0  0  0  0  0  0  0  0
    3.8320   -4.9978   -1.2968 H   0  0  0  0  0  0  0  0  0  0  0  0
    2.7846   -5.0447    0.1244 H   0  0  0  0  0  0  0  0  0  0  0  0
    4.4088   -4.5595    2.4284 H   0  0  0  0  0  0  0  0  0  0  0  0
    5.9985   -5.9407    3.7175 H   0  0  0  0  0  0  0  0  0  0  0  0
    7.2579   -7.7410    2.6320 H   0  0  0  0  0  0  0  0  0  0  0  0
    6.9841   -9.9009    1.7401 H   0  0  0  0  0  0  0  0  0  0  0  0
    7.9502  -11.8293    0.5390 H   0  0  0  0  0  0  0  0  0  0  0  0
    8.5270  -11.5958   -1.8815 H   0  0  0  0  0  0  0  0  0  0  0  0
    8.1202   -9.3927   -2.9835 H   0  0  0  0  0  0  0  0  0  0  0  0
    5.4131   -6.7634   -1.1372 H   0  0  0  0  0  0  0  0  0  0  0  0
    2.5970    2.8225    0.7225 H   0  0  0  0  0  0  0  0  0  0  0  0
    2.6763    2.8121   -1.0483 H   0  0  0  0  0  0  0  0  0  0  0  0
    5.1526    3.0479   -0.9508 H   0  0  0  0  0  0  0  0  0  0  0  0
    5.0671    3.0803    0.8484 H   0  0  0  0  0  0  0  0  0  0  0  0
    7.0028    3.8597    0.0181 H   0  0  0  0  0  0  0  0  0  0  0  0
    8.9593    5.3197   -0.0042 H   0  0  0  0  0  0  0  0  0  0  0  0
    6.4479    8.7758   -0.2449 H   0  0  0  0  0  0  0  0  0  0  0  0
    4.4248    7.3246   -0.2296 H   0  0  0  0  0  0  0  0  0  0  0  0
  1  2  1  0  0  0  0
  1 33  1  0  0  0  0
  1 34  1  0  0  0  0
  1 35  1  0  0  0  0
  2  3  2  0  0  0  0
  2 22  1  0  0  0  0
  3  4  1  0  0  0  0
  3 20  1  0  0  0  0
  4  5  2  0  0  0  0
  4  6  1  0  0  0  0
  6  7  1  0  0  0  0
  6 36  1  0  0  0  0
  7  8  1  0  0  0  0
  7 37  1  0  0  0  0
  7 38  1  0  0  0  0
  8  9  2  0  0  0  0
  8 19  1  0  0  0  0
  9 10  1  0  0  0  0
  9 39  1  0  0  0  0
 10 11  2  0  0  0  0
 10 40  1  0  0  0  0
 11 12  1  0  0  0  0
 11 41  1  0  0  0  0
 12 13  1  0  0  0  0
 12 19  2  0  0  0  0
 13 14  2  0  0  0  0
 13 18  1  0  0  0  0
 14 15  1  0  0  0  0
 14 42  1  0  0  0  0
 15 16  2  0  0  0  0
 15 43  1  0  0  0  0
 16 17  1  0  0  0  0
 16 44  1  0  0  0  0
 17 18  2  0  0  0  0
 17 45  1  0  0  0  0
 19 46  1  0  0  0  0
 20 21  2  0  0  0  0
 21 22  1  0  0  0  0
 22 23  1  0  0  0  0
 23 24  1  0  0  0  0
 23 47  1  0  0  0  0
 23 48  1  0  0  0  0
 24 25  1  0  0  0  0
 24 49  1  0  0  0  0
 24 50  1  0  0  0  0
 25 26  1  0  0  0  0
 26 27  2  0  0  0  0
 26 32  1  0  0  0  0
 27 28  1  0  0  0  0
 27 51  1  0  0  0  0
 28 29  2  0  0  0  0
 28 52  1  0  0  0  0
 29 30  1  0  0  0  0
 29 31  1  0  0  0  0
 31 32  2  0  0  0  0
 31 53  1  0  0  0  0
 32 54  1  0  0  0  0
M  END
$$$$
