
 OpenBabel01122422523D

 46 49  0  0  1  0  0  0  0  0999 V2000
    2.6484   -0.8642    0.1059 O   0  0  0  0  0  0  0  0  0  0  0  0
    2.2340    0.2911    0.1873 C   0  0  0  0  0  0  0  0  0  0  0  0
    0.7665    0.6138    0.5019 C   0  0  0  0  0  0  0  0  0  0  0  0
   -0.2179   -0.0098   -0.3778 N   0  0  0  0  0  0  0  0  0  0  0  0
   -0.6358   -1.2979   -0.1462 C   0  0  0  0  0  0  0  0  0  0  0  0
   -1.6447   -1.8647   -0.7255 N   0  0  0  0  0  0  0  0  0  0  0  0
   -2.4028   -1.0974   -1.6219 C   0  0  0  0  0  0  0  0  0  0  0  0
   -3.5713   -1.6429   -2.1657 C   0  0  0  0  0  0  0  0  0  0  0  0
   -4.3852   -0.8795   -3.0063 C   0  0  0  0  0  0  0  0  0  0  0  0
   -4.0229    0.4282   -3.3096 C   0  0  0  0  0  0  0  0  0  0  0  0
   -4.8232    1.1685   -4.0883 F   0  0  0  0  0  0  0  0  0  0  0  0
   -2.8547    0.9848   -2.8022 C   0  0  0  0  0  0  0  0  0  0  0  0
   -2.0501    0.2125   -1.9585 C   0  0  0  0  0  0  0  0  0  0  0  0
   -0.8419    0.7843   -1.3283 C   0  0  0  0  0  0  0  0  0  0  0  0
   -0.4754    1.9190   -1.6196 O   0  0  0  0  0  0  0  0  0  0  0  0
    3.0531    1.3939    0.0782 N   0  0  0  0  0  0  0  0  0  0  0  0
    4.5046    1.3132    0.0781 C   0  0  3  0  0  0  0  0  0  0  0  0
    5.1092    1.9249   -1.1808 C   0  0  0  0  0  0  0  0  0  0  0  0
    5.8659    1.1340   -2.0596 C   0  0  0  0  0  0  0  0  0  0  0  0
    6.5375    1.7109   -3.1407 C   0  0  0  0  0  0  0  0  0  0  0  0
    6.4829    3.0895   -3.3470 C   0  0  0  0  0  0  0  0  0  0  0  0
    5.7346    3.9047   -2.4888 C   0  0  0  0  0  0  0  0  0  0  0  0
    5.7454    5.4087   -2.6315 C   0  0  0  0  0  0  0  0  0  0  0  0
    6.6371    5.8579   -3.5597 F   0  0  0  0  0  0  0  0  0  0  0  0
    4.5377    5.9188   -2.9922 F   0  0  0  0  0  0  0  0  0  0  0  0
    6.0858    6.0312   -1.4678 F   0  0  0  0  0  0  0  0  0  0  0  0
    5.0160    3.3072   -1.4385 C   0  0  0  0  0  0  0  0  0  0  0  0
    4.9931    2.0396    1.3056 C   0  0  0  0  0  0  0  0  0  0  0  0
    4.4034    3.0438    1.9296 N   0  0  0  0  0  0  0  0  0  0  0  0
    5.2264    3.4543    2.9502 N   0  0  0  0  0  0  0  0  0  0  0  0
    6.2975    2.6979    2.9288 C   0  0  0  0  0  0  0  0  0  0  0  0
    6.1994    1.7969    1.9123 N   0  0  0  0  0  0  0  0  0  0  0  0
    0.6222    1.6995    0.5062 H   0  0  0  0  0  0  0  0  0  0  0  0
    0.5807    0.2661    1.5259 H   0  0  0  0  0  0  0  0  0  0  0  0
   -0.0377   -1.8551    0.5904 H   0  0  0  0  0  0  0  0  0  0  0  0
   -3.8569   -2.6603   -1.9119 H   0  0  0  0  0  0  0  0  0  0  0  0
   -5.3045   -1.2920   -3.4125 H   0  0  0  0  0  0  0  0  0  0  0  0
   -2.5997    2.0115   -3.0412 H   0  0  0  0  0  0  0  0  0  0  0  0
    2.6749    2.3118    0.2811 H   0  0  0  0  0  0  0  0  0  0  0  0
    4.8103    0.2626    0.1587 H   0  0  0  0  0  0  0  0  0  0  0  0
    5.9564    0.0606   -1.9010 H   0  0  0  0  0  0  0  0  0  0  0  0
    7.1294    1.0889   -3.8088 H   0  0  0  0  0  0  0  0  0  0  0  0
    7.0455    3.5284   -4.1706 H   0  0  0  0  0  0  0  0  0  0  0  0
    4.4270    3.9438   -0.7764 H   0  0  0  0  0  0  0  0  0  0  0  0
    7.1416    2.7620    3.6013 H   0  0  0  0  0  0  0  0  0  0  0  0
    6.8886    1.1081    1.6472 H   0  0  0  0  0  0  0  0  0  0  0  0
  1  2  2  0  0  0  0
  2  3  1  0  0  0  0
  2 16  1  0  0  0  0
  3  4  1  0  0  0  0
  3 33  1  0  0  0  0
  3 34  1  0  0  0  0
  4  5  1  0  0  0  0
  4 14  1  0  0  0  0
  5  6  2  0  0  0  0
  5 35  1  0  0  0  0
  6  7  1  0  0  0  0
  7  8  2  0  0  0  0
  7 13  1  0  0  0  0
  8  9  1  0  0  0  0
  8 36  1  0  0  0  0
  9 10  2  0  0  0  0
  9 37  1  0  0  0  0
 10 11  1  0  0  0  0
 10 12  1  0  0  0  0
 12 13  2  0  0  0  0
 12 38  1  0  0  0  0
 13 14  1  0  0  0  0
 14 15  2  0  0  0  0
 16 17  1  0  0  0  0
 16 39  1  0  0  0  0
 17 18  1  0  0  0  0
 17 28  1  0  0  0  0
 17 40  1  0  0  0  0
 18 19  2  0  0  0  0
 18 27  1  0  0  0  0
 19 20  1  0  0  0  0
 19 41  1  0  0  0  0
 20 21  2  0  0  0  0
 20 42  1  0  0  0  0
 21 22  1  0  0  0  0
 21 43  1  0  0  0  0
 22 23  1  0  0  0  0
 22 27  2  0  0  0  0
 23 24  1  0  0  0  0
 23 25  1  0  0  0  0
 23 26  1  0  0  0  0
 27 44  1  0  0  0  0
 28 29  2  0  0  0  0
 28 32  1  0  0  0  0
 29 30  1  0  0  0  0
 30 31  2  0  0  0  0
 31 32  1  0  0  0  0
 31 45  1  0  0  0  0
 32 46  1  0  0  0  0
M  END
$$$$
