
 OpenBabel01122422533D

 40 43  0  0  0  0  0  0  0  0999 V2000
    2.9428    0.6188    0.8578 O   0  0  0  0  0  0  0  0  0  0  0  0
    2.3475    0.0779   -0.0595 C   0  0  0  0  0  0  0  0  0  0  0  0
    2.9044   -0.7198   -1.0025 O   0  0  0  0  0  0  0  0  0  0  0  0
    4.3173   -0.9180   -0.8857 C   0  0  0  0  0  0  0  0  0  0  0  0
    4.7599   -2.0446    0.0651 C   0  0  0  0  0  0  0  0  0  0  0  0
    3.9423   -2.6564    0.7532 O   0  0  0  0  0  0  0  0  0  0  0  0
    6.1926   -2.3935    0.0831 C   0  0  0  0  0  0  0  0  0  0  0  0
    7.1792   -1.7921   -0.6834 C   0  0  0  0  0  0  0  0  0  0  0  0
    8.3775   -2.3978   -0.4165 N   0  0  0  0  0  0  0  0  0  0  0  0
    8.2096   -3.3956    0.5121 C   0  0  0  0  0  0  0  0  0  0  0  0
    9.1565   -4.2729    1.0595 C   0  0  0  0  0  0  0  0  0  0  0  0
    8.7077   -5.2027    1.9980 C   0  0  0  0  0  0  0  0  0  0  0  0
    7.3695   -5.2394    2.3645 C   0  0  0  0  0  0  0  0  0  0  0  0
    6.9698   -6.1421    3.2707 F   0  0  0  0  0  0  0  0  0  0  0  0
    6.4311   -4.3637    1.8126 C   0  0  0  0  0  0  0  0  0  0  0  0
    6.8535   -3.4145    0.8561 C   0  0  0  0  0  0  0  0  0  0  0  0
    0.8864    0.2574   -0.3123 C   0  0  0  0  0  0  0  0  0  0  0  0
    0.1275    0.9816    0.6272 C   0  0  0  0  0  0  0  0  0  0  0  0
   -1.2466    1.1803    0.4326 C   0  0  0  0  0  0  0  0  0  0  0  0
   -1.8599    0.6636   -0.7144 C   0  0  0  0  0  0  0  0  0  0  0  0
   -3.2323    0.8719   -0.9221 N   0  0  0  0  0  0  0  0  0  0  0  0
   -4.0285    1.5751   -0.0595 C   0  0  0  0  0  0  0  0  0  0  0  0
   -5.2217    1.7673   -0.2676 O   0  0  0  0  0  0  0  0  0  0  0  0
   -3.3739    2.1054    1.1631 C   0  0  0  0  0  0  0  0  0  0  0  0
   -2.0690    1.9176    1.3961 C   0  0  0  0  0  0  0  0  0  0  0  0
   -1.1049   -0.0448   -1.6477 C   0  0  0  0  0  0  0  0  0  0  0  0
   -1.6921   -0.5298   -2.7519 F   0  0  0  0  0  0  0  0  0  0  0  0
    0.2594   -0.2518   -1.4577 C   0  0  0  0  0  0  0  0  0  0  0  0
    4.8181    0.0158   -0.6022 H   0  0  0  0  0  0  0  0  0  0  0  0
    4.6607   -1.1816   -1.8923 H   0  0  0  0  0  0  0  0  0  0  0  0
    7.1407   -0.9873   -1.4053 H   0  0  0  0  0  0  0  0  0  0  0  0
    9.2628   -2.1574   -0.8414 H   0  0  0  0  0  0  0  0  0  0  0  0
   10.2019   -4.2379    0.7685 H   0  0  0  0  0  0  0  0  0  0  0  0
    9.4032   -5.9062    2.4485 H   0  0  0  0  0  0  0  0  0  0  0  0
    5.3928   -4.4248    2.1243 H   0  0  0  0  0  0  0  0  0  0  0  0
    0.6161    1.3882    1.5117 H   0  0  0  0  0  0  0  0  0  0  0  0
   -3.6766    0.4998   -1.7528 H   0  0  0  0  0  0  0  0  0  0  0  0
   -4.0163    2.6452    1.8496 H   0  0  0  0  0  0  0  0  0  0  0  0
   -1.6038    2.3025    2.2975 H   0  0  0  0  0  0  0  0  0  0  0  0
    0.8096   -0.8043   -2.2129 H   0  0  0  0  0  0  0  0  0  0  0  0
  1  2  2  0  0  0  0
  2  3  1  0  0  0  0
  2 17  1  0  0  0  0
  3  4  1  0  0  0  0
  4  5  1  0  0  0  0
  4 29  1  0  0  0  0
  4 30  1  0  0  0  0
  5  6  2  0  0  0  0
  5  7  1  0  0  0  0
  7  8  2  0  0  0  0
  7 16  1  0  0  0  0
  8  9  1  0  0  0  0
  8 31  1  0  0  0  0
  9 10  1  0  0  0  0
  9 32  1  0  0  0  0
 10 11  2  0  0  0  0
 10 16  1  0  0  0  0
 11 12  1  0  0  0  0
 11 33  1  0  0  0  0
 12 13  2  0  0  0  0
 12 34  1  0  0  0  0
 13 14  1  0  0  0  0
 13 15  1  0  0  0  0
 15 16  2  0  0  0  0
 15 35  1  0  0  0  0
 17 18  2  0  0  0  0
 17 28  1  0  0  0  0
 18 19  1  0  0  0  0
 18 36  1  0  0  0  0
 19 20  2  0  0  0  0
 19 25  1  0  0  0  0
 20 21  1  0  0  0  0
 20 26  1  0  0  0  0
 21 22  1  0  0  0  0
 21 37  1  0  0  0  0
 22 23  2  0  0  0  0
 22 24  1  0  0  0  0
 24 25  2  0  0  0  0
 24 38  1  0  0  0  0
 25 39  1  0  0  0  0
 26 27  1  0  0  0  0
 26 28  2  0  0  0  0
 28 40  1  0  0  0  0
M  END
$$$$
