
 OpenBabel01122422533D

 44 47  0  0  1  0  0  0  0  0999 V2000
   -2.6195    0.2847    3.1321 N   0  0  0  0  0  0  0  0  0  0  0  0
   -1.5167    0.2009    2.7704 C   0  0  0  0  0  0  0  0  0  0  0  0
   -0.1550    0.1000    2.3231 C   0  0  0  0  0  0  0  0  0  0  0  0
    0.2228    0.6250    1.0844 C   0  0  0  0  0  0  0  0  0  0  0  0
    1.5497    0.5173    0.6426 C   0  0  0  0  0  0  0  0  0  0  0  0
    2.5240   -0.1273    1.4250 C   0  0  0  0  0  0  0  0  0  0  0  0
    3.9471   -0.2921    0.8939 C   0  0  1  0  0  0  0  0  0  0  0  0
    4.8988    0.3170    1.7722 O   0  0  0  0  0  0  0  0  0  0  0  0
    4.3258   -1.7714    0.6150 C   0  0  0  0  0  0  0  0  0  0  0  0
    3.4919   -2.6722    0.5552 O   0  0  0  0  0  0  0  0  0  0  0  0
    5.6999   -1.9580    0.4606 N   0  0  0  0  0  0  0  0  0  0  0  0
    6.2686   -3.2223    0.2004 C   0  0  0  0  0  0  0  0  0  0  0  0
    5.6946   -4.1144   -0.7121 C   0  0  0  0  0  0  0  0  0  0  0  0
    6.2490   -5.3853   -0.9212 C   0  0  0  0  0  0  0  0  0  0  0  0
    7.3800   -5.7763   -0.2089 C   0  0  0  0  0  0  0  0  0  0  0  0
    7.9685   -7.0147   -0.2618 O   0  0  0  0  0  0  0  0  0  0  0  0
    7.9306   -7.8201   -1.3162 C   0  0  0  0  0  0  0  0  0  0  0  0
    7.4568   -7.6120   -2.5280 N   0  0  0  0  0  0  0  0  0  0  0  0
    7.6946   -8.8078   -3.1638 C   0  0  0  0  0  0  0  0  0  0  0  0
    7.3930   -9.2443   -4.4615 C   0  0  0  0  0  0  0  0  0  0  0  0
    7.7365  -10.5594   -4.8174 C   0  0  0  0  0  0  0  0  0  0  0  0
    8.3848  -11.4097   -3.9125 C   0  0  0  0  0  0  0  0  0  0  0  0
    8.7148  -10.9816   -2.6209 C   0  0  0  0  0  0  0  0  0  0  0  0
    8.3360   -9.6829   -2.3003 C   0  0  0  0  0  0  0  0  0  0  0  0
    8.5023   -9.0440   -1.1071 O   0  0  0  0  0  0  0  0  0  0  0  0
    7.9494   -4.8845    0.7082 C   0  0  0  0  0  0  0  0  0  0  0  0
    7.4230   -3.5989    0.8851 C   0  0  0  0  0  0  0  0  0  0  0  0
    2.1315   -0.6517    2.6710 C   0  0  0  0  0  0  0  0  0  0  0  0
    0.8076   -0.5327    3.1150 C   0  0  0  0  0  0  0  0  0  0  0  0
   -0.5140    1.1103    0.4464 H   0  0  0  0  0  0  0  0  0  0  0  0
    1.8076    0.9246   -0.3343 H   0  0  0  0  0  0  0  0  0  0  0  0
    4.0392    0.2278   -0.0678 H   0  0  0  0  0  0  0  0  0  0  0  0
    4.5952    0.1677    2.6834 H   0  0  0  0  0  0  0  0  0  0  0  0
    6.2814   -1.2442    0.8916 H   0  0  0  0  0  0  0  0  0  0  0  0
    4.8130   -3.8299   -1.2821 H   0  0  0  0  0  0  0  0  0  0  0  0
    5.7625   -6.0530   -1.6264 H   0  0  0  0  0  0  0  0  0  0  0  0
    6.8928   -8.5864   -5.1635 H   0  0  0  0  0  0  0  0  0  0  0  0
    7.4891  -10.9253   -5.8126 H   0  0  0  0  0  0  0  0  0  0  0  0
    8.6324  -12.4257   -4.2166 H   0  0  0  0  0  0  0  0  0  0  0  0
    9.2168  -11.6236   -1.9080 H   0  0  0  0  0  0  0  0  0  0  0  0
    8.8019   -5.2009    1.3050 H   0  0  0  0  0  0  0  0  0  0  0  0
    7.8826   -2.9376    1.6137 H   0  0  0  0  0  0  0  0  0  0  0  0
    2.8441   -1.1915    3.2950 H   0  0  0  0  0  0  0  0  0  0  0  0
    0.5316   -0.9564    4.0792 H   0  0  0  0  0  0  0  0  0  0  0  0
  1  2  3  0  0  0  0
  2  3  1  0  0  0  0
  3  4  2  0  0  0  0
  3 29  1  0  0  0  0
  4  5  1  0  0  0  0
  4 30  1  0  0  0  0
  5  6  2  0  0  0  0
  5 31  1  0  0  0  0
  6  7  1  0  0  0  0
  6 28  1  0  0  0  0
  7  8  1  0  0  0  0
  7  9  1  0  0  0  0
  7 32  1  6  0  0  0
  8 33  1  0  0  0  0
  9 10  2  0  0  0  0
  9 11  1  0  0  0  0
 11 12  1  0  0  0  0
 11 34  1  0  0  0  0
 12 13  2  0  0  0  0
 12 27  1  0  0  0  0
 13 14  1  0  0  0  0
 13 35  1  0  0  0  0
 14 15  2  0  0  0  0
 14 36  1  0  0  0  0
 15 16  1  0  0  0  0
 15 26  1  0  0  0  0
 16 17  1  0  0  0  0
 17 18  2  0  0  0  0
 17 25  1  0  0  0  0
 18 19  1  0  0  0  0
 19 20  2  0  0  0  0
 19 24  1  0  0  0  0
 20 21  1  0  0  0  0
 20 37  1  0  0  0  0
 21 22  2  0  0  0  0
 21 38  1  0  0  0  0
 22 23  1  0  0  0  0
 22 39  1  0  0  0  0
 23 24  2  0  0  0  0
 23 40  1  0  0  0  0
 24 25  1  0  0  0  0
 26 27  2  0  0  0  0
 26 41  1  0  0  0  0
 27 42  1  0  0  0  0
 28 29  2  0  0  0  0
 28 43  1  0  0  0  0
 29 44  1  0  0  0  0
M  END
$$$$
