
 OpenBabel01122422533D

 51 54  0  0  0  0  0  0  0  0999 V2000
    4.5458   -1.5978    2.1055 C   0  0  0  0  0  0  0  0  0  0  0  0
    3.5675   -1.0276    1.0920 C   0  0  0  0  0  0  0  0  0  0  0  0
    3.8573   -1.4986   -0.3099 C   0  0  0  0  0  0  0  0  0  0  0  0
    4.7063   -0.7584   -1.1424 C   0  0  0  0  0  0  0  0  0  0  0  0
    4.9209   -1.1538   -2.4618 C   0  0  0  0  0  0  0  0  0  0  0  0
    4.3104   -2.3074   -2.9527 C   0  0  0  0  0  0  0  0  0  0  0  0
    3.5507   -3.1154   -2.1026 C   0  0  0  0  0  0  0  0  0  0  0  0
    2.9772   -4.3138   -2.4705 O   0  0  0  0  0  0  0  0  0  0  0  0
    3.5873   -5.1052   -3.4203 C   0  0  0  0  0  0  0  0  0  0  0  0
    4.9715   -5.2022   -3.5976 C   0  0  0  0  0  0  0  0  0  0  0  0
    5.5005   -5.9602   -4.6487 C   0  0  0  0  0  0  0  0  0  0  0  0
    4.6424   -6.6815   -5.4841 C   0  0  0  0  0  0  0  0  0  0  0  0
    5.1456   -7.4837   -6.6303 C   0  0  0  0  0  0  0  0  0  0  0  0
    4.5593   -8.5042   -6.9650 O   0  0  0  0  0  0  0  0  0  0  0  0
    6.2456   -6.9855   -7.3036 N   0  0  0  0  0  0  0  0  0  0  0  0
    6.7253   -7.6236   -8.5140 C   0  0  0  0  0  0  0  0  0  0  0  0
    6.0022   -7.0579   -9.7197 C   0  0  0  0  0  0  0  0  0  0  0  0
    4.8766   -7.6331  -10.1614 C   0  0  0  0  0  0  0  0  0  0  0  0
    4.2030   -7.0871  -11.3488 C   0  0  0  0  0  0  0  0  0  0  0  0
    3.1561   -7.6084  -11.7325 O   0  0  0  0  0  0  0  0  0  0  0  0
    4.8355   -6.0117  -11.9517 N   0  0  0  0  0  0  0  0  0  0  0  0
    4.2674   -5.4406  -13.0859 C   0  0  0  0  0  0  0  0  0  0  0  0
    4.8398   -4.4085  -13.7188 C   0  0  0  0  0  0  0  0  0  0  0  0
    6.0823   -3.8714  -13.2312 C   0  0  0  0  0  0  0  0  0  0  0  0
    6.6607   -4.3826  -12.1372 C   0  0  0  0  0  0  0  0  0  0  0  0
    6.0200   -5.5198  -11.4141 C   0  0  0  0  0  0  0  0  0  0  0  0
    6.5959   -5.9857  -10.3453 N   0  0  0  0  0  0  0  0  0  0  0  0
    3.2657   -6.6795   -5.2307 C   0  0  0  0  0  0  0  0  0  0  0  0
    2.7382   -5.8859   -4.2061 C   0  0  0  0  0  0  0  0  0  0  0  0
    3.2934   -2.6877   -0.7966 C   0  0  0  0  0  0  0  0  0  0  0  0
    4.2992   -1.2382    3.1097 H   0  0  0  0  0  0  0  0  0  0  0  0
    5.5735   -1.2941    1.8797 H   0  0  0  0  0  0  0  0  0  0  0  0
    4.5123   -2.6921    2.1186 H   0  0  0  0  0  0  0  0  0  0  0  0
    3.6015    0.0686    1.1238 H   0  0  0  0  0  0  0  0  0  0  0  0
    2.5425   -1.3041    1.3672 H   0  0  0  0  0  0  0  0  0  0  0  0
    5.1899    0.1429   -0.7727 H   0  0  0  0  0  0  0  0  0  0  0  0
    5.5616   -0.5623   -3.1102 H   0  0  0  0  0  0  0  0  0  0  0  0
    4.4575   -2.5730   -3.9953 H   0  0  0  0  0  0  0  0  0  0  0  0
    5.6531   -4.6741   -2.9356 H   0  0  0  0  0  0  0  0  0  0  0  0
    6.5764   -5.9930   -4.7851 H   0  0  0  0  0  0  0  0  0  0  0  0
    6.5736   -6.0488   -7.1157 H   0  0  0  0  0  0  0  0  0  0  0  0
    6.5871   -8.7083   -8.4416 H   0  0  0  0  0  0  0  0  0  0  0  0
    7.8025   -7.4330   -8.5861 H   0  0  0  0  0  0  0  0  0  0  0  0
    4.4148   -8.4845   -9.6768 H   0  0  0  0  0  0  0  0  0  0  0  0
    3.3326   -5.8685  -13.4380 H   0  0  0  0  0  0  0  0  0  0  0  0
    4.3863   -3.9682  -14.6008 H   0  0  0  0  0  0  0  0  0  0  0  0
    6.5376   -3.0489  -13.7736 H   0  0  0  0  0  0  0  0  0  0  0  0
    7.5987   -4.0100  -11.7458 H   0  0  0  0  0  0  0  0  0  0  0  0
    2.5957   -7.2816   -5.8420 H   0  0  0  0  0  0  0  0  0  0  0  0
    1.6655   -5.8730   -4.0310 H   0  0  0  0  0  0  0  0  0  0  0  0
    2.6490   -3.2878   -0.1580 H   0  0  0  0  0  0  0  0  0  0  0  0
  1  2  1  0  0  0  0
  1 31  1  0  0  0  0
  1 32  1  0  0  0  0
  1 33  1  0  0  0  0
  2  3  1  0  0  0  0
  2 34  1  0  0  0  0
  2 35  1  0  0  0  0
  3  4  2  0  0  0  0
  3 30  1  0  0  0  0
  4  5  1  0  0  0  0
  4 36  1  0  0  0  0
  5  6  2  0  0  0  0
  5 37  1  0  0  0  0
  6  7  1  0  0  0  0
  6 38  1  0  0  0  0
  7  8  1  0  0  0  0
  7 30  2  0  0  0  0
  8  9  1  0  0  0  0
  9 10  2  0  0  0  0
  9 29  1  0  0  0  0
 10 11  1  0  0  0  0
 10 39  1  0  0  0  0
 11 12  2  0  0  0  0
 11 40  1  0  0  0  0
 12 13  1  0  0  0  0
 12 28  1  0  0  0  0
 13 14  2  0  0  0  0
 13 15  1  0  0  0  0
 15 16  1  0  0  0  0
 15 41  1  0  0  0  0
 16 17  1  0  0  0  0
 16 42  1  0  0  0  0
 16 43  1  0  0  0  0
 17 18  2  0  0  0  0
 17 27  1  0  0  0  0
 18 19  1  0  0  0  0
 18 44  1  0  0  0  0
 19 20  2  0  0  0  0
 19 21  1  0  0  0  0
 21 22  1  0  0  0  0
 21 26  1  0  0  0  0
 22 23  2  0  0  0  0
 22 45  1  0  0  0  0
 23 24  1  0  0  0  0
 23 46  1  0  0  0  0
 24 25  2  0  0  0  0
 24 47  1  0  0  0  0
 25 26  1  0  0  0  0
 25 48  1  0  0  0  0
 26 27  2  0  0  0  0
 28 29  2  0  0  0  0
 28 49  1  0  0  0  0
 29 50  1  0  0  0  0
 30 51  1  0  0  0  0
M  END
$$$$
