
 OpenBabel01122422533D

 42 45  0  0  0  0  0  0  0  0999 V2000
   -1.9380    3.7435    3.7304 N   0  0  0  0  0  0  0  0  0  0  0  0
   -1.3586    4.2671    2.8742 C   0  0  0  0  0  0  0  0  0  0  0  0
   -0.6162    4.9667    1.8630 C   0  0  0  0  0  0  0  0  0  0  0  0
   -0.2104    6.2802    2.1671 C   0  0  0  0  0  0  0  0  0  0  0  0
    0.5938    7.0015    1.2860 C   0  0  0  0  0  0  0  0  0  0  0  0
    1.0031    6.4153    0.0951 C   0  0  0  0  0  0  0  0  0  0  0  0
    0.5901    5.1201   -0.2248 C   0  0  0  0  0  0  0  0  0  0  0  0
   -0.2385    4.3827    0.6389 C   0  0  0  0  0  0  0  0  0  0  0  0
   -0.5781    2.7021    0.1135 S   0  0  0  0  0  0  0  0  0  0  0  0
   -2.3548    2.6431   -0.0790 C   0  0  0  0  0  0  0  0  0  0  0  0
   -3.0507    2.0465    0.9918 C   0  0  0  0  0  0  0  0  0  0  0  0
   -4.4386    1.8993    0.9765 C   0  0  0  0  0  0  0  0  0  0  0  0
   -5.1643    2.3302   -0.1228 C   0  0  0  0  0  0  0  0  0  0  0  0
   -4.4954    2.9018   -1.2037 C   0  0  0  0  0  0  0  0  0  0  0  0
   -3.0903    3.0553   -1.2067 C   0  0  0  0  0  0  0  0  0  0  0  0
   -2.5414    3.6619   -2.4602 C   0  0  0  0  0  0  0  0  0  0  0  0
   -3.2280    4.5213   -3.0055 O   0  0  0  0  0  0  0  0  0  0  0  0
   -1.3443    3.1570   -2.9302 N   0  0  0  0  0  0  0  0  0  0  0  0
   -0.7390    3.5375   -4.1428 C   0  0  0  0  0  0  0  0  0  0  0  0
    0.4814    2.9714   -4.4689 C   0  0  0  0  0  0  0  0  0  0  0  0
    1.0983    3.3699   -5.6611 C   0  0  0  0  0  0  0  0  0  0  0  0
    0.5048    4.3012   -6.5092 C   0  0  0  0  0  0  0  0  0  0  0  0
   -0.7197    4.7899   -6.1096 C   0  0  0  0  0  0  0  0  0  0  0  0
   -1.3348    4.4288   -4.9594 N   0  0  0  0  0  0  0  0  0  0  0  0
    1.1733    4.7063   -7.6583 N   0  0  0  0  0  0  0  0  0  0  0  0
    2.4285    4.2267   -7.8780 C   0  0  0  0  0  0  0  0  0  0  0  0
    3.0637    3.3563   -7.1709 N   0  0  0  0  0  0  0  0  0  0  0  0
    2.4166    2.8201   -6.0741 C   0  0  0  0  0  0  0  0  0  0  0  0
    2.8864    1.9019   -5.4110 O   0  0  0  0  0  0  0  0  0  0  0  0
   -0.5013    6.7432    3.1107 H   0  0  0  0  0  0  0  0  0  0  0  0
    0.9141    8.0104    1.5365 H   0  0  0  0  0  0  0  0  0  0  0  0
    1.6533    6.9592   -0.5862 H   0  0  0  0  0  0  0  0  0  0  0  0
    0.9448    4.6832   -1.1566 H   0  0  0  0  0  0  0  0  0  0  0  0
   -2.5146    1.6867    1.8701 H   0  0  0  0  0  0  0  0  0  0  0  0
   -4.9452    1.4479    1.8265 H   0  0  0  0  0  0  0  0  0  0  0  0
   -6.2456    2.2189   -0.1456 H   0  0  0  0  0  0  0  0  0  0  0  0
   -5.0800    3.2252   -2.0656 H   0  0  0  0  0  0  0  0  0  0  0  0
   -0.8734    2.4576   -2.3724 H   0  0  0  0  0  0  0  0  0  0  0  0
    0.9659    2.2473   -3.8225 H   0  0  0  0  0  0  0  0  0  0  0  0
   -1.2692    5.5182   -6.6996 H   0  0  0  0  0  0  0  0  0  0  0  0
    0.7393    5.3617   -8.2963 H   0  0  0  0  0  0  0  0  0  0  0  0
    2.9108    4.6745   -8.7635 H   0  0  0  0  0  0  0  0  0  0  0  0
  1  2  3  0  0  0  0
  2  3  1  0  0  0  0
  3  4  2  0  0  0  0
  3  8  1  0  0  0  0
  4  5  1  0  0  0  0
  4 30  1  0  0  0  0
  5  6  2  0  0  0  0
  5 31  1  0  0  0  0
  6  7  1  0  0  0  0
  6 32  1  0  0  0  0
  7  8  2  0  0  0  0
  7 33  1  0  0  0  0
  8  9  1  0  0  0  0
  9 10  1  0  0  0  0
 10 11  2  0  0  0  0
 10 15  1  0  0  0  0
 11 12  1  0  0  0  0
 11 34  1  0  0  0  0
 12 13  2  0  0  0  0
 12 35  1  0  0  0  0
 13 14  1  0  0  0  0
 13 36  1  0  0  0  0
 14 15  2  0  0  0  0
 14 37  1  0  0  0  0
 15 16  1  0  0  0  0
 16 17  2  0  0  0  0
 16 18  1  0  0  0  0
 18 19  1  0  0  0  0
 18 38  1  0  0  0  0
 19 20  2  0  0  0  0
 19 24  1  0  0  0  0
 20 21  1  0  0  0  0
 20 39  1  0  0  0  0
 21 22  2  0  0  0  0
 21 28  1  0  0  0  0
 22 23  1  0  0  0  0
 22 25  1  0  0  0  0
 23 24  2  0  0  0  0
 23 40  1  0  0  0  0
 25 26  1  0  0  0  0
 25 41  1  0  0  0  0
 26 27  2  0  0  0  0
 26 42  1  0  0  0  0
 27 28  1  0  0  0  0
 28 29  2  0  0  0  0
M  END
$$$$
