
 OpenBabel01122422533D

 61 64  0  0  1  0  0  0  0  0999 V2000
    0.6781   -1.7473   -0.4589 C   0  0  0  0  0  0  0  0  0  0  0  0
    2.2031   -1.8468   -0.4956 C   0  0  0  0  0  0  0  0  0  0  0  0
    2.9003   -0.6043   -0.9067 N   0  0  0  0  0  0  0  0  0  0  0  0
    2.5660    0.5091    0.0054 C   0  0  0  0  0  0  0  0  0  0  0  0
    3.1243    1.8735   -0.4056 C   0  0  0  0  0  0  0  0  0  0  0  0
    4.3757   -0.8419   -0.9363 C   0  0  0  0  0  0  0  0  0  0  0  0
    4.9070   -1.8352   -2.0220 C   0  0  3  0  0  0  0  0  0  0  0  0
    4.4536   -1.4658   -3.3567 N   0  0  0  0  0  0  0  0  0  0  0  0
    3.9675   -2.3954   -4.2411 C   0  0  0  0  0  0  0  0  0  0  0  0
    3.7996   -3.5778   -3.9579 O   0  0  0  0  0  0  0  0  0  0  0  0
    3.5866   -1.9041   -5.5956 C   0  0  0  0  0  0  0  0  0  0  0  0
    3.4194   -2.8547   -6.6071 C   0  0  0  0  0  0  0  0  0  0  0  0
    2.7137   -2.5279   -7.7619 C   0  0  0  0  0  0  0  0  0  0  0  0
    2.0655   -1.2851   -7.8346 C   0  0  0  0  0  0  0  0  0  0  0  0
    0.7343   -1.2181   -8.4567 N   0  0  0  0  0  0  0  0  0  0  0  0
   -0.0763   -0.2307   -7.9367 C   0  0  0  0  0  0  0  0  0  0  0  0
   -0.8108   -0.3841   -6.8748 N   0  0  0  0  0  0  0  0  0  0  0  0
   -0.7306   -1.6664   -6.2747 C   0  0  0  0  0  0  0  0  0  0  0  0
   -0.8143   -1.8149   -4.8896 C   0  0  0  0  0  0  0  0  0  0  0  0
   -0.5548   -3.0620   -4.3120 C   0  0  0  0  0  0  0  0  0  0  0  0
   -0.2698   -4.1757   -5.1118 C   0  0  0  0  0  0  0  0  0  0  0  0
   -0.2124   -4.0453   -6.4984 C   0  0  0  0  0  0  0  0  0  0  0  0
   -0.4048   -2.7821   -7.0504 C   0  0  0  0  0  0  0  0  0  0  0  0
    0.0705   -2.4498   -8.4185 C   0  0  0  0  0  0  0  0  0  0  0  0
   -0.0783   -3.2113   -9.3650 O   0  0  0  0  0  0  0  0  0  0  0  0
    2.4971   -0.2537   -6.9864 C   0  0  0  0  0  0  0  0  0  0  0  0
    3.2299   -0.5733   -5.8409 C   0  0  0  0  0  0  0  0  0  0  0  0
    6.4308   -1.8993   -2.0151 C   0  0  0  0  0  0  0  0  0  0  0  0
    7.0836   -3.1036   -1.7097 C   0  0  0  0  0  0  0  0  0  0  0  0
    8.4783   -3.1776   -1.7099 C   0  0  0  0  0  0  0  0  0  0  0  0
    9.2379   -2.0526   -2.0228 C   0  0  0  0  0  0  0  0  0  0  0  0
    8.6057   -0.8529   -2.3390 C   0  0  0  0  0  0  0  0  0  0  0  0
    7.2126   -0.7753   -2.3365 C   0  0  0  0  0  0  0  0  0  0  0  0
    0.2428   -2.7439   -0.3273 H   0  0  0  0  0  0  0  0  0  0  0  0
    0.2842   -1.3286   -1.3901 H   0  0  0  0  0  0  0  0  0  0  0  0
    0.3269   -1.1361    0.3784 H   0  0  0  0  0  0  0  0  0  0  0  0
    2.4368   -2.6472   -1.2055 H   0  0  0  0  0  0  0  0  0  0  0  0
    2.5557   -2.1765    0.4907 H   0  0  0  0  0  0  0  0  0  0  0  0
    2.8857    0.2743    1.0287 H   0  0  0  0  0  0  0  0  0  0  0  0
    1.4794    0.6412    0.0401 H   0  0  0  0  0  0  0  0  0  0  0  0
    3.7112    1.8506   -1.3280 H   0  0  0  0  0  0  0  0  0  0  0  0
    3.7574    2.2763    0.3921 H   0  0  0  0  0  0  0  0  0  0  0  0
    2.3065    2.5829   -0.5732 H   0  0  0  0  0  0  0  0  0  0  0  0
    4.7211   -1.1713    0.0529 H   0  0  0  0  0  0  0  0  0  0  0  0
    4.8721    0.1151   -1.1239 H   0  0  0  0  0  0  0  0  0  0  0  0
    4.5248   -2.8354   -1.7869 H   0  0  0  0  0  0  0  0  0  0  0  0
    4.6643   -0.5314   -3.6668 H   0  0  0  0  0  0  0  0  0  0  0  0
    3.7207   -3.8883   -6.4439 H   0  0  0  0  0  0  0  0  0  0  0  0
    2.4927   -3.3230   -8.4731 H   0  0  0  0  0  0  0  0  0  0  0  0
   -0.0057    0.7369   -8.4624 H   0  0  0  0  0  0  0  0  0  0  0  0
   -1.0025   -0.9498   -4.2605 H   0  0  0  0  0  0  0  0  0  0  0  0
   -0.5365   -3.1608   -3.2291 H   0  0  0  0  0  0  0  0  0  0  0  0
   -0.0327   -5.1296   -4.6459 H   0  0  0  0  0  0  0  0  0  0  0  0
    0.0860   -4.8822   -7.1224 H   0  0  0  0  0  0  0  0  0  0  0  0
    2.1071    0.7579   -7.0732 H   0  0  0  0  0  0  0  0  0  0  0  0
    3.3695    0.2047   -5.0971 H   0  0  0  0  0  0  0  0  0  0  0  0
    6.5083   -3.9997   -1.4841 H   0  0  0  0  0  0  0  0  0  0  0  0
    8.9721   -4.1177   -1.4768 H   0  0  0  0  0  0  0  0  0  0  0  0
   10.3229   -2.1139   -2.0312 H   0  0  0  0  0  0  0  0  0  0  0  0
    9.1976    0.0219   -2.5946 H   0  0  0  0  0  0  0  0  0  0  0  0
    6.7432    0.1693   -2.5994 H   0  0  0  0  0  0  0  0  0  0  0  0
  1  2  1  0  0  0  0
  1 34  1  0  0  0  0
  1 35  1  0  0  0  0
  1 36  1  0  0  0  0
  2  3  1  0  0  0  0
  2 37  1  0  0  0  0
  2 38  1  0  0  0  0
  3  4  1  0  0  0  0
  3  6  1  0  0  0  0
  4  5  1  0  0  0  0
  4 39  1  0  0  0  0
  4 40  1  0  0  0  0
  5 41  1  0  0  0  0
  5 42  1  0  0  0  0
  5 43  1  0  0  0  0
  6  7  1  0  0  0  0
  6 44  1  0  0  0  0
  6 45  1  0  0  0  0
  7  8  1  0  0  0  0
  7 28  1  0  0  0  0
  7 46  1  0  0  0  0
  8  9  1  0  0  0  0
  8 47  1  0  0  0  0
  9 10  2  0  0  0  0
  9 11  1  0  0  0  0
 11 12  2  0  0  0  0
 11 27  1  0  0  0  0
 12 13  1  0  0  0  0
 12 48  1  0  0  0  0
 13 14  2  0  0  0  0
 13 49  1  0  0  0  0
 14 15  1  0  0  0  0
 14 26  1  0  0  0  0
 15 16  1  0  0  0  0
 15 24  1  0  0  0  0
 16 17  2  0  0  0  0
 16 50  1  0  0  0  0
 17 18  1  0  0  0  0
 18 19  2  0  0  0  0
 18 23  1  0  0  0  0
 19 20  1  0  0  0  0
 19 51  1  0  0  0  0
 20 21  2  0  0  0  0
 20 52  1  0  0  0  0
 21 22  1  0  0  0  0
 21 53  1  0  0  0  0
 22 23  2  0  0  0  0
 22 54  1  0  0  0  0
 23 24  1  0  0  0  0
 24 25  2  0  0  0  0
 26 27  2  0  0  0  0
 26 55  1  0  0  0  0
 27 56  1  0  0  0  0
 28 29  2  0  0  0  0
 28 33  1  0  0  0  0
 29 30  1  0  0  0  0
 29 57  1  0  0  0  0
 30 31  2  0  0  0  0
 30 58  1  0  0  0  0
 31 32  1  0  0  0  0
 31 59  1  0  0  0  0
 32 33  2  0  0  0  0
 32 60  1  0  0  0  0
 33 61  1  0  0  0  0
M  END
$$$$
