
 OpenBabel01122422533D

 45 48  0  0  0  0  0  0  0  0999 V2000
    1.9500    3.0739    0.1188 O   0  0  0  0  0  0  0  0  0  0  0  0
    2.5975    2.0408    0.2722 C   0  0  0  0  0  0  0  0  0  0  0  0
    2.7493    1.1089   -0.7217 N   0  0  0  0  0  0  0  0  0  0  0  0
    2.1918    1.3027   -2.0399 C   0  0  0  0  0  0  0  0  0  0  0  0
    3.1552    2.0411   -2.8912 C   0  0  0  0  0  0  0  0  0  0  0  0
    3.3314    3.3995   -3.0388 C   0  0  0  0  0  0  0  0  0  0  0  0
    4.2155    3.5279   -4.0862 N   0  0  0  0  0  0  0  0  0  0  0  0
    4.6063    4.7284   -4.7323 C   0  0  0  0  0  0  0  0  0  0  0  0
    4.7925    5.8507   -3.8916 C   0  0  0  0  0  0  0  0  0  0  0  0
    5.2677    7.0538   -4.4020 C   0  0  0  0  0  0  0  0  0  0  0  0
    5.5511    7.1536   -5.7537 C   0  0  0  0  0  0  0  0  0  0  0  0
    5.3132    6.0648   -6.6007 C   0  0  0  0  0  0  0  0  0  0  0  0
    4.8138    4.8206   -6.1372 C   0  0  0  0  0  0  0  0  0  0  0  0
    4.4314    3.7846   -7.1573 C   0  0  0  0  0  0  0  0  0  0  0  0
    5.1009    3.6745   -8.3943 C   0  0  0  0  0  0  0  0  0  0  0  0
    4.7287    2.7301   -9.3619 C   0  0  0  0  0  0  0  0  0  0  0  0
    3.7042    1.8292   -9.1023 C   0  0  0  0  0  0  0  0  0  0  0  0
    3.0153    1.9135   -7.9018 C   0  0  0  0  0  0  0  0  0  0  0  0
    3.3430    2.9090   -6.9745 C   0  0  0  0  0  0  0  0  0  0  0  0
    4.6726    2.3028   -4.4375 N   0  0  0  0  0  0  0  0  0  0  0  0
    4.0100    1.3904   -3.7367 N   0  0  0  0  0  0  0  0  0  0  0  0
    3.2434    1.7733    1.5802 C   0  0  0  0  0  0  0  0  0  0  0  0
    3.0427    2.6910    2.6160 C   0  0  0  0  0  0  0  0  0  0  0  0
    3.6259    2.4621    3.8522 C   0  0  0  0  0  0  0  0  0  0  0  0
    3.4456    3.3268    4.8543 F   0  0  0  0  0  0  0  0  0  0  0  0
    4.3966    1.3232    4.0327 C   0  0  0  0  0  0  0  0  0  0  0  0
    4.6178    0.4105    3.0584 N   0  0  0  0  0  0  0  0  0  0  0  0
    4.0361    0.6646    1.8708 C   0  0  0  0  0  0  0  0  0  0  0  0
    4.3151   -0.2998    0.9545 O   0  0  0  0  0  0  0  0  0  0  0  0
    3.3748    0.3205   -0.5790 H   0  0  0  0  0  0  0  0  0  0  0  0
    1.2462    1.8520   -1.9659 H   0  0  0  0  0  0  0  0  0  0  0  0
    1.9768    0.3150   -2.4616 H   0  0  0  0  0  0  0  0  0  0  0  0
    2.8328    4.2417   -2.5826 H   0  0  0  0  0  0  0  0  0  0  0  0
    4.6202    5.7881   -2.8184 H   0  0  0  0  0  0  0  0  0  0  0  0
    5.4287    7.9038   -3.7439 H   0  0  0  0  0  0  0  0  0  0  0  0
    5.9359    8.0847   -6.1633 H   0  0  0  0  0  0  0  0  0  0  0  0
    5.4955    6.2291   -7.6612 H   0  0  0  0  0  0  0  0  0  0  0  0
    5.9349    4.3280   -8.6374 H   0  0  0  0  0  0  0  0  0  0  0  0
    5.2525    2.6938  -10.3135 H   0  0  0  0  0  0  0  0  0  0  0  0
    3.4404    1.0681   -9.8305 H   0  0  0  0  0  0  0  0  0  0  0  0
    2.2207    1.2083   -7.6734 H   0  0  0  0  0  0  0  0  0  0  0  0
    2.7258    2.9589   -6.0826 H   0  0  0  0  0  0  0  0  0  0  0  0
    2.4359    3.5826    2.4686 H   0  0  0  0  0  0  0  0  0  0  0  0
    4.8601    1.1191    4.9923 H   0  0  0  0  0  0  0  0  0  0  0  0
    4.8907   -0.8777    1.4939 H   0  0  0  0  0  0  0  0  0  0  0  0
  1  2  2  0  0  0  0
  2  3  1  0  0  0  0
  2 22  1  0  0  0  0
  3  4  1  0  0  0  0
  3 30  1  0  0  0  0
  4  5  1  0  0  0  0
  4 31  1  0  0  0  0
  4 32  1  0  0  0  0
  5  6  2  0  0  0  0
  5 21  1  0  0  0  0
  6  7  1  0  0  0  0
  6 33  1  0  0  0  0
  7  8  1  0  0  0  0
  7 20  1  0  0  0  0
  8  9  2  0  0  0  0
  8 13  1  0  0  0  0
  9 10  1  0  0  0  0
  9 34  1  0  0  0  0
 10 11  2  0  0  0  0
 10 35  1  0  0  0  0
 11 12  1  0  0  0  0
 11 36  1  0  0  0  0
 12 13  2  0  0  0  0
 12 37  1  0  0  0  0
 13 14  1  0  0  0  0
 14 15  2  0  0  0  0
 14 19  1  0  0  0  0
 15 16  1  0  0  0  0
 15 38  1  0  0  0  0
 16 17  2  0  0  0  0
 16 39  1  0  0  0  0
 17 18  1  0  0  0  0
 17 40  1  0  0  0  0
 18 19  2  0  0  0  0
 18 41  1  0  0  0  0
 19 42  1  0  0  0  0
 20 21  2  0  0  0  0
 22 23  2  0  0  0  0
 22 28  1  0  0  0  0
 23 24  1  0  0  0  0
 23 43  1  0  0  0  0
 24 25  1  0  0  0  0
 24 26  2  0  0  0  0
 26 27  1  0  0  0  0
 26 44  1  0  0  0  0
 27 28  2  0  0  0  0
 28 29  1  0  0  0  0
 29 45  1  0  0  0  0
M  END
$$$$
