
 OpenBabel01122422533D

 45 48  0  0  0  0  0  0  0  0999 V2000
    2.7575    0.6825    0.8050 O   0  0  0  0  0  0  0  0  0  0  0  0
    2.1683   -0.1322    0.1066 C   0  0  0  0  0  0  0  0  0  0  0  0
    0.8035   -0.2156   -0.0924 N   0  0  0  0  0  0  0  0  0  0  0  0
   -0.1264    0.6597    0.4414 C   0  0  0  0  0  0  0  0  0  0  0  0
    0.1022    1.8876    1.0080 C   0  0  0  0  0  0  0  0  0  0  0  0
   -1.1118    2.3570    1.3954 N   0  0  0  0  0  0  0  0  0  0  0  0
   -2.1303    1.5317    1.1058 N   0  0  0  0  0  0  0  0  0  0  0  0
   -1.5424    0.4670    0.5244 C   0  0  0  0  0  0  0  0  0  0  0  0
   -2.3057   -0.7217    0.1292 C   0  0  0  0  0  0  0  0  0  0  0  0
   -3.6657   -0.8274    0.4047 C   0  0  0  0  0  0  0  0  0  0  0  0
   -4.3971   -1.9371    0.1159 N   0  0  0  0  0  0  0  0  0  0  0  0
   -3.7072   -2.9437   -0.4628 C   0  0  0  0  0  0  0  0  0  0  0  0
   -2.3548   -2.8472   -0.7499 C   0  0  0  0  0  0  0  0  0  0  0  0
   -1.6207   -1.7437   -0.4701 N   0  0  0  0  0  0  0  0  0  0  0  0
    2.9611   -1.1950   -0.5696 C   0  0  0  0  0  0  0  0  0  0  0  0
    2.6315   -1.6458   -1.8548 C   0  0  0  0  0  0  0  0  0  0  0  0
    3.4171   -2.6220   -2.4860 C   0  0  0  0  0  0  0  0  0  0  0  0
    3.0860   -3.0834   -3.8807 C   0  0  0  0  0  0  0  0  0  0  0  0
    2.1989   -4.1971   -3.8006 O   0  0  0  0  0  0  0  0  0  0  0  0
    1.8628   -4.7926   -4.9876 C   0  0  0  0  0  0  0  0  0  0  0  0
    2.2457   -4.3578   -6.2564 C   0  0  0  0  0  0  0  0  0  0  0  0
    1.8361   -5.0691   -7.3799 C   0  0  0  0  0  0  0  0  0  0  0  0
    2.2103   -4.6461   -8.5944 F   0  0  0  0  0  0  0  0  0  0  0  0
    1.0494   -6.2090   -7.2657 C   0  0  0  0  0  0  0  0  0  0  0  0
    0.6602   -6.6456   -6.0038 C   0  0  0  0  0  0  0  0  0  0  0  0
    1.0634   -5.9346   -4.8694 C   0  0  0  0  0  0  0  0  0  0  0  0
    4.5146   -3.1591   -1.7999 C   0  0  0  0  0  0  0  0  0  0  0  0
    4.8538   -2.7029   -0.5232 C   0  0  0  0  0  0  0  0  0  0  0  0
    4.0799   -1.7169    0.0882 C   0  0  0  0  0  0  0  0  0  0  0  0
    0.4011   -1.0501   -0.5176 H   0  0  0  0  0  0  0  0  0  0  0  0
    1.0073    2.4544    1.1771 H   0  0  0  0  0  0  0  0  0  0  0  0
   -1.3185    3.2318    1.8681 H   0  0  0  0  0  0  0  0  0  0  0  0
   -4.2122   -0.0234    0.8851 H   0  0  0  0  0  0  0  0  0  0  0  0
   -4.2752   -3.8394   -0.6864 H   0  0  0  0  0  0  0  0  0  0  0  0
   -1.8219   -3.6697   -1.2144 H   0  0  0  0  0  0  0  0  0  0  0  0
    1.7823   -1.2163   -2.3863 H   0  0  0  0  0  0  0  0  0  0  0  0
    4.0161   -3.3614   -4.3936 H   0  0  0  0  0  0  0  0  0  0  0  0
    2.6135   -2.2592   -4.4307 H   0  0  0  0  0  0  0  0  0  0  0  0
    2.8567   -3.4778   -6.4182 H   0  0  0  0  0  0  0  0  0  0  0  0
    0.7497   -6.7467   -8.1612 H   0  0  0  0  0  0  0  0  0  0  0  0
    0.0460   -7.5364   -5.8994 H   0  0  0  0  0  0  0  0  0  0  0  0
    0.7588   -6.2800   -3.8831 H   0  0  0  0  0  0  0  0  0  0  0  0
    5.1298   -3.9308   -2.2654 H   0  0  0  0  0  0  0  0  0  0  0  0
    5.7154   -3.1161   -0.0067 H   0  0  0  0  0  0  0  0  0  0  0  0
    4.3512   -1.3541    1.0776 H   0  0  0  0  0  0  0  0  0  0  0  0
  1  2  2  0  0  0  0
  2  3  1  0  0  0  0
  2 15  1  0  0  0  0
  3  4  1  0  0  0  0
  3 30  1  0  0  0  0
  4  5  2  0  0  0  0
  4  8  1  0  0  0  0
  5  6  1  0  0  0  0
  5 31  1  0  0  0  0
  6  7  1  0  0  0  0
  6 32  1  0  0  0  0
  7  8  2  0  0  0  0
  8  9  1  0  0  0  0
  9 10  2  0  0  0  0
  9 14  1  0  0  0  0
 10 11  1  0  0  0  0
 10 33  1  0  0  0  0
 11 12  2  0  0  0  0
 12 13  1  0  0  0  0
 12 34  1  0  0  0  0
 13 14  2  0  0  0  0
 13 35  1  0  0  0  0
 15 16  2  0  0  0  0
 15 29  1  0  0  0  0
 16 17  1  0  0  0  0
 16 36  1  0  0  0  0
 17 18  1  0  0  0  0
 17 27  2  0  0  0  0
 18 19  1  0  0  0  0
 18 37  1  0  0  0  0
 18 38  1  0  0  0  0
 19 20  1  0  0  0  0
 20 21  2  0  0  0  0
 20 26  1  0  0  0  0
 21 22  1  0  0  0  0
 21 39  1  0  0  0  0
 22 23  1  0  0  0  0
 22 24  2  0  0  0  0
 24 25  1  0  0  0  0
 24 40  1  0  0  0  0
 25 26  2  0  0  0  0
 25 41  1  0  0  0  0
 26 42  1  0  0  0  0
 27 28  1  0  0  0  0
 27 43  1  0  0  0  0
 28 29  2  0  0  0  0
 28 44  1  0  0  0  0
 29 45  1  0  0  0  0
M  END
$$$$
