
 OpenBabel01122422533D

 45 48  0  0  0  0  0  0  0  0999 V2000
    1.1651    0.9692    0.5640 O   0  0  0  0  0  0  0  0  0  0  0  0
    2.2357    0.4890    0.2114 C   0  0  0  0  0  0  0  0  0  0  0  0
    2.7451    0.5181   -1.0746 N   0  0  0  0  0  0  0  0  0  0  0  0
    2.1003    1.0760   -2.1971 C   0  0  0  0  0  0  0  0  0  0  0  0
    0.9932    1.9193   -2.1181 C   0  0  0  0  0  0  0  0  0  0  0  0
    0.3728    2.3704   -3.2827 C   0  0  0  0  0  0  0  0  0  0  0  0
    0.9064    1.9887   -4.4980 C   0  0  0  0  0  0  0  0  0  0  0  0
    0.2306    2.4042   -5.6242 O   0  0  0  0  0  0  0  0  0  0  0  0
    1.0805    2.4285   -6.7738 C   0  0  0  0  0  0  0  0  0  0  0  0
    0.2673    2.8236   -7.9843 C   0  0  0  0  0  0  0  0  0  0  0  0
   -0.7536    1.9890   -8.4402 C   0  0  0  0  0  0  0  0  0  0  0  0
   -1.4628    2.3540   -9.5803 C   0  0  0  0  0  0  0  0  0  0  0  0
   -1.1413    3.5385  -10.2302 C   0  0  0  0  0  0  0  0  0  0  0  0
   -0.1184    4.3135   -9.7113 C   0  0  0  0  0  0  0  0  0  0  0  0
    0.5923    3.9832   -8.6114 N   0  0  0  0  0  0  0  0  0  0  0  0
    1.9923    1.1971   -4.6266 N   0  0  0  0  0  0  0  0  0  0  0  0
    2.5636    0.7659   -3.4765 C   0  0  0  0  0  0  0  0  0  0  0  0
    3.0560   -0.2543    1.1512 C   0  0  0  0  0  0  0  0  0  0  0  0
    4.4326   -0.2208    1.2660 C   0  0  0  0  0  0  0  0  0  0  0  0
    4.7377   -0.9966    2.3411 N   0  0  0  0  0  0  0  0  0  0  0  0
    3.6723   -1.5777    2.9037 N   0  0  0  0  0  0  0  0  0  0  0  0
    2.6213   -1.1530    2.1798 C   0  0  0  0  0  0  0  0  0  0  0  0
    1.2723   -1.6652    2.4557 C   0  0  0  0  0  0  0  0  0  0  0  0
    0.8927   -1.9952    3.7631 C   0  0  0  0  0  0  0  0  0  0  0  0
   -0.3671   -2.5391    4.0051 C   0  0  0  0  0  0  0  0  0  0  0  0
   -0.7151   -2.8650    5.2575 F   0  0  0  0  0  0  0  0  0  0  0  0
   -1.2683   -2.7620    2.9706 C   0  0  0  0  0  0  0  0  0  0  0  0
   -0.9083   -2.4336    1.6693 C   0  0  0  0  0  0  0  0  0  0  0  0
    0.3572   -1.8959    1.4135 C   0  0  0  0  0  0  0  0  0  0  0  0
    3.5694   -0.0423   -1.2487 H   0  0  0  0  0  0  0  0  0  0  0  0
    0.5835    2.2513   -1.1702 H   0  0  0  0  0  0  0  0  0  0  0  0
   -0.4999    3.0089   -3.2333 H   0  0  0  0  0  0  0  0  0  0  0  0
    1.5198    1.4447   -6.9774 H   0  0  0  0  0  0  0  0  0  0  0  0
    1.8813    3.1622   -6.6173 H   0  0  0  0  0  0  0  0  0  0  0  0
   -0.9886    1.0675   -7.9168 H   0  0  0  0  0  0  0  0  0  0  0  0
   -2.2582    1.7178   -9.9578 H   0  0  0  0  0  0  0  0  0  0  0  0
   -1.6745    3.8516  -11.1209 H   0  0  0  0  0  0  0  0  0  0  0  0
    0.1690    5.2487  -10.1826 H   0  0  0  0  0  0  0  0  0  0  0  0
    3.4183    0.1137   -3.6270 H   0  0  0  0  0  0  0  0  0  0  0  0
    5.1992    0.3162    0.7245 H   0  0  0  0  0  0  0  0  0  0  0  0
    5.6502   -1.1797    2.7469 H   0  0  0  0  0  0  0  0  0  0  0  0
    1.5703   -1.8423    4.5971 H   0  0  0  0  0  0  0  0  0  0  0  0
   -2.2409   -3.1933    3.1855 H   0  0  0  0  0  0  0  0  0  0  0  0
   -1.6020   -2.5981    0.8484 H   0  0  0  0  0  0  0  0  0  0  0  0
    0.6135   -1.6708    0.3821 H   0  0  0  0  0  0  0  0  0  0  0  0
  1  2  2  0  0  0  0
  2  3  1  0  0  0  0
  2 18  1  0  0  0  0
  3  4  1  0  0  0  0
  3 30  1  0  0  0  0
  4  5  2  0  0  0  0
  4 17  1  0  0  0  0
  5  6  1  0  0  0  0
  5 31  1  0  0  0  0
  6  7  2  0  0  0  0
  6 32  1  0  0  0  0
  7  8  1  0  0  0  0
  7 16  1  0  0  0  0
  8  9  1  0  0  0  0
  9 10  1  0  0  0  0
  9 33  1  0  0  0  0
  9 34  1  0  0  0  0
 10 11  2  0  0  0  0
 10 15  1  0  0  0  0
 11 12  1  0  0  0  0
 11 35  1  0  0  0  0
 12 13  2  0  0  0  0
 12 36  1  0  0  0  0
 13 14  1  0  0  0  0
 13 37  1  0  0  0  0
 14 15  2  0  0  0  0
 14 38  1  0  0  0  0
 16 17  2  0  0  0  0
 17 39  1  0  0  0  0
 18 19  2  0  0  0  0
 18 22  1  0  0  0  0
 19 20  1  0  0  0  0
 19 40  1  0  0  0  0
 20 21  1  0  0  0  0
 20 41  1  0  0  0  0
 21 22  2  0  0  0  0
 22 23  1  0  0  0  0
 23 24  2  0  0  0  0
 23 29  1  0  0  0  0
 24 25  1  0  0  0  0
 24 42  1  0  0  0  0
 25 26  1  0  0  0  0
 25 27  2  0  0  0  0
 27 28  1  0  0  0  0
 27 43  1  0  0  0  0
 28 29  2  0  0  0  0
 28 44  1  0  0  0  0
 29 45  1  0  0  0  0
M  END
$$$$
