
 OpenBabel01122422533D

 48 50  0  0  1  0  0  0  0  0999 V2000
    1.1940   -2.2302    0.4872 C   0  0  0  0  0  0  0  0  0  0  0  0
    2.5466   -1.7837    0.6149 O   0  0  0  0  0  0  0  0  0  0  0  0
    3.1769   -1.5545   -0.5732 C   0  0  0  0  0  0  0  0  0  0  0  0
    2.6563   -1.7478   -1.6762 O   0  0  0  0  0  0  0  0  0  0  0  0
    4.6270   -1.0313   -0.3945 C   0  0  3  0  0  0  0  0  0  0  0  0
    5.0827   -0.8822    0.9916 N   0  0  0  0  0  0  0  0  0  0  0  0
    4.8733    0.2686    1.7166 C   0  0  0  0  0  0  0  0  0  0  0  0
    4.3942    1.2889    1.2370 O   0  0  0  0  0  0  0  0  0  0  0  0
    5.2886    0.2391    3.1451 C   0  0  0  0  0  0  0  0  0  0  0  0
    5.7321    1.4195    3.7434 C   0  0  0  0  0  0  0  0  0  0  0  0
    6.0774    1.3800    5.0827 C   0  0  0  0  0  0  0  0  0  0  0  0
    6.0259    0.2605    5.8334 N   0  0  0  0  0  0  0  0  0  0  0  0
    5.5895   -0.8660    5.2322 C   0  0  0  0  0  0  0  0  0  0  0  0
    5.4740   -2.0263    5.9719 O   0  0  0  0  0  0  0  0  0  0  0  0
    6.3509   -2.0245    7.1013 C   0  0  0  0  0  0  0  0  0  0  0  0
    6.1318   -3.2740    7.9235 C   0  0  0  0  0  0  0  0  0  0  0  0
    7.1510   -4.2253    8.0714 C   0  0  0  0  0  0  0  0  0  0  0  0
    6.9688   -5.3360    8.8981 C   0  0  0  0  0  0  0  0  0  0  0  0
    5.7707   -5.5034    9.5897 C   0  0  0  0  0  0  0  0  0  0  0  0
    4.7455   -4.5713    9.4407 C   0  0  0  0  0  0  0  0  0  0  0  0
    4.9208   -3.4669    8.6048 C   0  0  0  0  0  0  0  0  0  0  0  0
    5.1959   -0.9266    3.9075 C   0  0  0  0  0  0  0  0  0  0  0  0
    5.6088   -1.9081   -1.1566 C   0  0  0  0  0  0  0  0  0  0  0  0
    6.4183   -1.3783   -2.1741 C   0  0  0  0  0  0  0  0  0  0  0  0
    7.3078   -2.2032   -2.8685 C   0  0  0  0  0  0  0  0  0  0  0  0
    7.3931   -3.5540   -2.5473 C   0  0  0  0  0  0  0  0  0  0  0  0
    8.2469   -4.3391   -3.2148 F   0  0  0  0  0  0  0  0  0  0  0  0
    6.6112   -4.0989   -1.5404 C   0  0  0  0  0  0  0  0  0  0  0  0
    5.7291   -3.2721   -0.8540 C   0  0  0  0  0  0  0  0  0  0  0  0
    4.9959   -3.7966    0.1391 F   0  0  0  0  0  0  0  0  0  0  0  0
    0.7380   -2.2238    1.4811 H   0  0  0  0  0  0  0  0  0  0  0  0
    1.1641   -3.2530    0.0988 H   0  0  0  0  0  0  0  0  0  0  0  0
    0.6146   -1.5576   -0.1559 H   0  0  0  0  0  0  0  0  0  0  0  0
    4.6143   -0.0284   -0.8399 H   0  0  0  0  0  0  0  0  0  0  0  0
    5.4989   -1.6928    1.4285 H   0  0  0  0  0  0  0  0  0  0  0  0
    5.8032    2.3488    3.1868 H   0  0  0  0  0  0  0  0  0  0  0  0
    6.4094    2.2719    5.6079 H   0  0  0  0  0  0  0  0  0  0  0  0
    6.1733   -1.1655    7.7615 H   0  0  0  0  0  0  0  0  0  0  0  0
    7.3897   -1.9896    6.7478 H   0  0  0  0  0  0  0  0  0  0  0  0
    8.1004   -4.1010    7.5554 H   0  0  0  0  0  0  0  0  0  0  0  0
    7.7669   -6.0653    9.0113 H   0  0  0  0  0  0  0  0  0  0  0  0
    5.6366   -6.3590   10.2464 H   0  0  0  0  0  0  0  0  0  0  0  0
    3.8120   -4.6991    9.9826 H   0  0  0  0  0  0  0  0  0  0  0  0
    4.1144   -2.7442    8.4975 H   0  0  0  0  0  0  0  0  0  0  0  0
    4.8101   -1.8537    3.5026 H   0  0  0  0  0  0  0  0  0  0  0  0
    6.3597   -0.3233   -2.4367 H   0  0  0  0  0  0  0  0  0  0  0  0
    7.9340   -1.8031   -3.6614 H   0  0  0  0  0  0  0  0  0  0  0  0
    6.6899   -5.1515   -1.2934 H   0  0  0  0  0  0  0  0  0  0  0  0
  1  2  1  0  0  0  0
  1 31  1  0  0  0  0
  1 32  1  0  0  0  0
  1 33  1  0  0  0  0
  2  3  1  0  0  0  0
  3  4  2  0  0  0  0
  3  5  1  0  0  0  0
  5  6  1  0  0  0  0
  5 23  1  0  0  0  0
  5 34  1  0  0  0  0
  6  7  1  0  0  0  0
  6 35  1  0  0  0  0
  7  8  2  0  0  0  0
  7  9  1  0  0  0  0
  9 10  2  0  0  0  0
  9 22  1  0  0  0  0
 10 11  1  0  0  0  0
 10 36  1  0  0  0  0
 11 12  2  0  0  0  0
 11 37  1  0  0  0  0
 12 13  1  0  0  0  0
 13 14  1  0  0  0  0
 13 22  2  0  0  0  0
 14 15  1  0  0  0  0
 15 16  1  0  0  0  0
 15 38  1  0  0  0  0
 15 39  1  0  0  0  0
 16 17  2  0  0  0  0
 16 21  1  0  0  0  0
 17 18  1  0  0  0  0
 17 40  1  0  0  0  0
 18 19  2  0  0  0  0
 18 41  1  0  0  0  0
 19 20  1  0  0  0  0
 19 42  1  0  0  0  0
 20 21  2  0  0  0  0
 20 43  1  0  0  0  0
 21 44  1  0  0  0  0
 22 45  1  0  0  0  0
 23 24  2  0  0  0  0
 23 29  1  0  0  0  0
 24 25  1  0  0  0  0
 24 46  1  0  0  0  0
 25 26  2  0  0  0  0
 25 47  1  0  0  0  0
 26 27  1  0  0  0  0
 26 28  1  0  0  0  0
 28 29  2  0  0  0  0
 28 48  1  0  0  0  0
 29 30  1  0  0  0  0
M  END
$$$$
