
 OpenBabel01122422533D

 48 51  0  0  0  0  0  0  0  0999 V2000
    2.0629    0.6415    1.2786 C   0  0  0  0  0  0  0  0  0  0  0  0
    3.3020    0.2265    0.7153 O   0  0  0  0  0  0  0  0  0  0  0  0
    3.8409    1.0435   -0.2384 C   0  0  0  0  0  0  0  0  0  0  0  0
    5.0580    0.6028   -0.7736 C   0  0  0  0  0  0  0  0  0  0  0  0
    5.7354    1.3586   -1.7344 C   0  0  0  0  0  0  0  0  0  0  0  0
    5.2013    2.5674   -2.1772 C   0  0  0  0  0  0  0  0  0  0  0  0
    5.9054    3.3924   -3.0518 N   0  0  0  0  0  0  0  0  0  0  0  0
    5.3945    4.5948   -3.5104 C   0  0  0  0  0  0  0  0  0  0  0  0
    6.2440    5.2670   -4.5650 C   0  0  0  0  0  0  0  0  0  0  0  0
    7.0317    4.5344   -5.1699 O   0  0  0  0  0  0  0  0  0  0  0  0
    6.1633    6.6376   -4.6423 N   0  0  0  0  0  0  0  0  0  0  0  0
    6.9298    7.4000   -5.5424 C   0  0  0  0  0  0  0  0  0  0  0  0
    7.0453    8.7721   -5.3241 C   0  0  0  0  0  0  0  0  0  0  0  0
    7.8391    9.5430   -6.1895 C   0  0  0  0  0  0  0  0  0  0  0  0
    8.0663   11.0186   -5.9438 C   0  0  0  0  0  0  0  0  0  0  0  0
    9.2657   11.3089   -5.0680 C   0  0  0  0  0  0  0  0  0  0  0  0
   10.5328   11.5149   -5.6349 C   0  0  0  0  0  0  0  0  0  0  0  0
   11.6484   11.7337   -4.8235 C   0  0  0  0  0  0  0  0  0  0  0  0
   11.5111   11.7560   -3.4373 C   0  0  0  0  0  0  0  0  0  0  0  0
   10.2560   11.5698   -2.8619 C   0  0  0  0  0  0  0  0  0  0  0  0
    9.1397   11.3455   -3.6714 C   0  0  0  0  0  0  0  0  0  0  0  0
    8.4587    8.9043   -7.2648 C   0  0  0  0  0  0  0  0  0  0  0  0
    8.2720    7.5440   -7.4180 C   0  0  0  0  0  0  0  0  0  0  0  0
    7.5251    6.7956   -6.5844 N   0  0  0  0  0  0  0  0  0  0  0  0
    4.2149    5.0847   -3.1047 C   0  0  0  0  0  0  0  0  0  0  0  0
    3.4331    4.3029   -2.1109 C   0  0  0  0  0  0  0  0  0  0  0  0
    2.3619    4.7353   -1.7000 O   0  0  0  0  0  0  0  0  0  0  0  0
    3.9817    3.0024   -1.6427 C   0  0  0  0  0  0  0  0  0  0  0  0
    3.2943    2.2466   -0.6871 C   0  0  0  0  0  0  0  0  0  0  0  0
    1.7933   -0.0721    2.0624 H   0  0  0  0  0  0  0  0  0  0  0  0
    1.2711    0.6272    0.5224 H   0  0  0  0  0  0  0  0  0  0  0  0
    2.1456    1.6289    1.7465 H   0  0  0  0  0  0  0  0  0  0  0  0
    5.4870   -0.3353   -0.4278 H   0  0  0  0  0  0  0  0  0  0  0  0
    6.6870    0.9995   -2.1207 H   0  0  0  0  0  0  0  0  0  0  0  0
    6.6891    3.0280   -3.5934 H   0  0  0  0  0  0  0  0  0  0  0  0
    5.6406    7.1408   -3.9448 H   0  0  0  0  0  0  0  0  0  0  0  0
    6.5612    9.2410   -4.4746 H   0  0  0  0  0  0  0  0  0  0  0  0
    7.1666   11.4610   -5.4973 H   0  0  0  0  0  0  0  0  0  0  0  0
    8.1824   11.5348   -6.9062 H   0  0  0  0  0  0  0  0  0  0  0  0
   10.6625   11.5011   -6.7145 H   0  0  0  0  0  0  0  0  0  0  0  0
   12.6279   11.8802   -5.2725 H   0  0  0  0  0  0  0  0  0  0  0  0
   12.3816   11.9154   -2.8062 H   0  0  0  0  0  0  0  0  0  0  0  0
   10.1484   11.5922   -1.7805 H   0  0  0  0  0  0  0  0  0  0  0  0
    8.1710   11.1954   -3.2019 H   0  0  0  0  0  0  0  0  0  0  0  0
    9.0826    9.4440   -7.9681 H   0  0  0  0  0  0  0  0  0  0  0  0
    8.7358    6.9952   -8.2326 H   0  0  0  0  0  0  0  0  0  0  0  0
    3.7574    5.9936   -3.4657 H   0  0  0  0  0  0  0  0  0  0  0  0
    2.3538    2.6265   -0.3062 H   0  0  0  0  0  0  0  0  0  0  0  0
  1  2  1  0  0  0  0
  1 30  1  0  0  0  0
  1 31  1  0  0  0  0
  1 32  1  0  0  0  0
  2  3  1  0  0  0  0
  3  4  2  0  0  0  0
  3 29  1  0  0  0  0
  4  5  1  0  0  0  0
  4 33  1  0  0  0  0
  5  6  2  0  0  0  0
  5 34  1  0  0  0  0
  6  7  1  0  0  0  0
  6 28  1  0  0  0  0
  7  8  1  0  0  0  0
  7 35  1  0  0  0  0
  8  9  1  0  0  0  0
  8 25  2  0  0  0  0
  9 10  2  0  0  0  0
  9 11  1  0  0  0  0
 11 12  1  0  0  0  0
 11 36  1  0  0  0  0
 12 13  2  0  0  0  0
 12 24  1  0  0  0  0
 13 14  1  0  0  0  0
 13 37  1  0  0  0  0
 14 15  1  0  0  0  0
 14 22  2  0  0  0  0
 15 16  1  0  0  0  0
 15 38  1  0  0  0  0
 15 39  1  0  0  0  0
 16 17  2  0  0  0  0
 16 21  1  0  0  0  0
 17 18  1  0  0  0  0
 17 40  1  0  0  0  0
 18 19  2  0  0  0  0
 18 41  1  0  0  0  0
 19 20  1  0  0  0  0
 19 42  1  0  0  0  0
 20 21  2  0  0  0  0
 20 43  1  0  0  0  0
 21 44  1  0  0  0  0
 22 23  1  0  0  0  0
 22 45  1  0  0  0  0
 23 24  2  0  0  0  0
 23 46  1  0  0  0  0
 25 26  1  0  0  0  0
 25 47  1  0  0  0  0
 26 27  2  0  0  0  0
 26 28  1  0  0  0  0
 28 29  2  0  0  0  0
 29 48  1  0  0  0  0
M  END
$$$$
