
 OpenBabel01122422533D

 44 46  0  0  1  0  0  0  0  0999 V2000
    1.2619   -2.4108   -0.2808 C   0  0  0  0  0  0  0  0  0  0  0  0
    2.6240   -2.0173   -0.4412 O   0  0  0  0  0  0  0  0  0  0  0  0
    3.2102   -1.4896    0.6733 C   0  0  0  0  0  0  0  0  0  0  0  0
    2.6488   -1.3270    1.7520 O   0  0  0  0  0  0  0  0  0  0  0  0
    4.7048   -1.2111    0.4138 C   0  0  3  0  0  0  0  0  0  0  0  0
    5.1718   -0.1099    1.2505 N   0  0  0  0  0  0  0  0  0  0  0  0
    5.0542    1.1972    0.8454 C   0  0  0  0  0  0  0  0  0  0  0  0
    4.6148    1.5283   -0.2504 O   0  0  0  0  0  0  0  0  0  0  0  0
    5.4897    2.1615    1.8437 C   0  0  0  0  0  0  0  0  0  0  0  0
    5.4366    3.5345    1.7506 C   0  0  0  0  0  0  0  0  0  0  0  0
    5.9163    3.9954    2.9517 N   0  0  0  0  0  0  0  0  0  0  0  0
    5.9722    5.3322    3.4262 C   0  0  0  0  0  0  0  0  0  0  0  0
    5.4415    6.3792    2.6608 C   0  0  0  0  0  0  0  0  0  0  0  0
    5.4477    7.6831    3.1562 C   0  0  0  0  0  0  0  0  0  0  0  0
    5.9883    7.9547    4.4125 C   0  0  0  0  0  0  0  0  0  0  0  0
    6.5375    6.9250    5.1909 C   0  0  0  0  0  0  0  0  0  0  0  0
    7.1223    7.2151    6.5533 C   0  0  0  0  0  0  0  0  0  0  0  0
    7.0495    8.5296    6.9060 F   0  0  0  0  0  0  0  0  0  0  0  0
    6.4935    6.5293    7.5470 F   0  0  0  0  0  0  0  0  0  0  0  0
    8.4389    6.8804    6.6384 F   0  0  0  0  0  0  0  0  0  0  0  0
    6.5259    5.6102    4.6878 C   0  0  0  0  0  0  0  0  0  0  0  0
    6.3203    2.9425    3.7075 N   0  0  0  0  0  0  0  0  0  0  0  0
    6.0401    1.8222    3.0530 N   0  0  0  0  0  0  0  0  0  0  0  0
    5.5100   -2.4801    0.6349 C   0  0  0  0  0  0  0  0  0  0  0  0
    6.0493   -2.8446    1.8811 C   0  0  0  0  0  0  0  0  0  0  0  0
    6.6955   -4.0733    2.0387 C   0  0  0  0  0  0  0  0  0  0  0  0
    6.7968   -4.9435    0.9606 C   0  0  0  0  0  0  0  0  0  0  0  0
    7.3912   -6.1323    1.1279 F   0  0  0  0  0  0  0  0  0  0  0  0
    6.2807   -4.6099   -0.2794 C   0  0  0  0  0  0  0  0  0  0  0  0
    5.6463   -3.3824   -0.4311 C   0  0  0  0  0  0  0  0  0  0  0  0
    5.1342   -3.0720   -1.6317 F   0  0  0  0  0  0  0  0  0  0  0  0
    0.8698   -2.6831   -1.2669 H   0  0  0  0  0  0  0  0  0  0  0  0
    0.6599   -1.5870    0.1125 H   0  0  0  0  0  0  0  0  0  0  0  0
    1.2000   -3.2872    0.3700 H   0  0  0  0  0  0  0  0  0  0  0  0
    4.8098   -0.8832   -0.6280 H   0  0  0  0  0  0  0  0  0  0  0  0
    5.2663   -0.2511    2.2493 H   0  0  0  0  0  0  0  0  0  0  0  0
    5.0861    4.1742    0.9566 H   0  0  0  0  0  0  0  0  0  0  0  0
    4.9966    6.2161    1.6835 H   0  0  0  0  0  0  0  0  0  0  0  0
    5.0182    8.4899    2.5656 H   0  0  0  0  0  0  0  0  0  0  0  0
    5.9747    8.9788    4.7850 H   0  0  0  0  0  0  0  0  0  0  0  0
    6.9499    4.8111    5.2985 H   0  0  0  0  0  0  0  0  0  0  0  0
    5.9643   -2.1958    2.7497 H   0  0  0  0  0  0  0  0  0  0  0  0
    7.1094   -4.3601    3.0015 H   0  0  0  0  0  0  0  0  0  0  0  0
    6.3559   -5.2951   -1.1137 H   0  0  0  0  0  0  0  0  0  0  0  0
  1  2  1  0  0  0  0
  1 32  1  0  0  0  0
  1 33  1  0  0  0  0
  1 34  1  0  0  0  0
  2  3  1  0  0  0  0
  3  4  2  0  0  0  0
  3  5  1  0  0  0  0
  5  6  1  0  0  0  0
  5 24  1  0  0  0  0
  5 35  1  0  0  0  0
  6  7  1  0  0  0  0
  6 36  1  0  0  0  0
  7  8  2  0  0  0  0
  7  9  1  0  0  0  0
  9 10  2  0  0  0  0
  9 23  1  0  0  0  0
 10 11  1  0  0  0  0
 10 37  1  0  0  0  0
 11 12  1  0  0  0  0
 11 22  1  0  0  0  0
 12 13  2  0  0  0  0
 12 21  1  0  0  0  0
 13 14  1  0  0  0  0
 13 38  1  0  0  0  0
 14 15  2  0  0  0  0
 14 39  1  0  0  0  0
 15 16  1  0  0  0  0
 15 40  1  0  0  0  0
 16 17  1  0  0  0  0
 16 21  2  0  0  0  0
 17 18  1  0  0  0  0
 17 19  1  0  0  0  0
 17 20  1  0  0  0  0
 21 41  1  0  0  0  0
 22 23  2  0  0  0  0
 24 25  2  0  0  0  0
 24 30  1  0  0  0  0
 25 26  1  0  0  0  0
 25 42  1  0  0  0  0
 26 27  2  0  0  0  0
 26 43  1  0  0  0  0
 27 28  1  0  0  0  0
 27 29  1  0  0  0  0
 29 30  2  0  0  0  0
 29 44  1  0  0  0  0
 30 31  1  0  0  0  0
M  END
$$$$
