
 OpenBabel01122422533D

 45 48  0  0  0  0  0  0  0  0999 V2000
    1.2507   -0.0130    0.7462 O   0  0  0  0  0  0  0  0  0  0  0  0
    2.3743    0.0341    0.2594 C   0  0  0  0  0  0  0  0  0  0  0  0
    2.9472    1.1038   -0.3989 N   0  0  0  0  0  0  0  0  0  0  0  0
    2.3448    2.3647   -0.5874 C   0  0  0  0  0  0  0  0  0  0  0  0
    1.2340    2.8048    0.1343 C   0  0  0  0  0  0  0  0  0  0  0  0
    0.6673    4.0520   -0.1303 C   0  0  0  0  0  0  0  0  0  0  0  0
    1.2186    4.8815   -1.1051 C   0  0  0  0  0  0  0  0  0  0  0  0
    0.5992    6.0891   -1.2703 O   0  0  0  0  0  0  0  0  0  0  0  0
    1.4126    7.1059   -1.8553 C   0  0  0  0  0  0  0  0  0  0  0  0
    0.8851    8.4724   -1.5184 C   0  0  0  0  0  0  0  0  0  0  0  0
    0.1402    8.7226   -0.3573 C   0  0  0  0  0  0  0  0  0  0  0  0
   -0.2555   10.0221   -0.0395 C   0  0  0  0  0  0  0  0  0  0  0  0
    0.0977   11.0856   -0.8715 C   0  0  0  0  0  0  0  0  0  0  0  0
    0.8459   10.8493   -2.0216 C   0  0  0  0  0  0  0  0  0  0  0  0
    1.2358    9.5521   -2.3333 C   0  0  0  0  0  0  0  0  0  0  0  0
    1.9812    9.3447   -3.4277 F   0  0  0  0  0  0  0  0  0  0  0  0
    2.3245    4.4450   -1.8328 C   0  0  0  0  0  0  0  0  0  0  0  0
    2.9007    3.2025   -1.5581 C   0  0  0  0  0  0  0  0  0  0  0  0
    3.1866   -1.1947    0.3106 C   0  0  0  0  0  0  0  0  0  0  0  0
    2.5533   -2.4323    0.2102 C   0  0  0  0  0  0  0  0  0  0  0  0
    3.3100   -3.5958    0.3100 C   0  0  0  0  0  0  0  0  0  0  0  0
    4.6858   -3.4932    0.5096 C   0  0  0  0  0  0  0  0  0  0  0  0
    5.4976   -4.7118    0.6431 C   0  0  0  0  0  0  0  0  0  0  0  0
    6.8270   -4.7345    0.8582 N   0  0  0  0  0  0  0  0  0  0  0  0
    7.0831   -6.0461    0.9177 N   0  0  0  0  0  0  0  0  0  0  0  0
    5.9581   -6.7805    0.7389 C   0  0  0  0  0  0  0  0  0  0  0  0
    4.9375   -5.9782    0.5621 N   0  0  0  0  0  0  0  0  0  0  0  0
    5.3194   -2.2883    0.6034 N   0  0  0  0  0  0  0  0  0  0  0  0
    4.5575   -1.1731    0.5151 C   0  0  0  0  0  0  0  0  0  0  0  0
    3.7911    0.9345   -0.9321 H   0  0  0  0  0  0  0  0  0  0  0  0
    0.7876    2.2037    0.9191 H   0  0  0  0  0  0  0  0  0  0  0  0
   -0.1991    4.3803    0.4392 H   0  0  0  0  0  0  0  0  0  0  0  0
    1.4141    6.9644   -2.9422 H   0  0  0  0  0  0  0  0  0  0  0  0
    2.4397    7.0616   -1.4662 H   0  0  0  0  0  0  0  0  0  0  0  0
   -0.1283    7.9063    0.3108 H   0  0  0  0  0  0  0  0  0  0  0  0
   -0.8338   10.2063    0.8657 H   0  0  0  0  0  0  0  0  0  0  0  0
   -0.2052   12.0984   -0.6155 H   0  0  0  0  0  0  0  0  0  0  0  0
    1.1365   11.6671   -2.6716 H   0  0  0  0  0  0  0  0  0  0  0  0
    2.7555    5.0433   -2.6284 H   0  0  0  0  0  0  0  0  0  0  0  0
    3.7655    2.8935   -2.1386 H   0  0  0  0  0  0  0  0  0  0  0  0
    1.4764   -2.4916    0.0665 H   0  0  0  0  0  0  0  0  0  0  0  0
    2.8285   -4.5671    0.2443 H   0  0  0  0  0  0  0  0  0  0  0  0
    8.0340   -6.3560    1.0795 H   0  0  0  0  0  0  0  0  0  0  0  0
    5.9419   -7.8607    0.7477 H   0  0  0  0  0  0  0  0  0  0  0  0
    5.1064   -0.2452    0.6452 H   0  0  0  0  0  0  0  0  0  0  0  0
  1  2  2  0  0  0  0
  2  3  1  0  0  0  0
  2 19  1  0  0  0  0
  3  4  1  0  0  0  0
  3 30  1  0  0  0  0
  4  5  2  0  0  0  0
  4 18  1  0  0  0  0
  5  6  1  0  0  0  0
  5 31  1  0  0  0  0
  6  7  2  0  0  0  0
  6 32  1  0  0  0  0
  7  8  1  0  0  0  0
  7 17  1  0  0  0  0
  8  9  1  0  0  0  0
  9 10  1  0  0  0  0
  9 33  1  0  0  0  0
  9 34  1  0  0  0  0
 10 11  2  0  0  0  0
 10 15  1  0  0  0  0
 11 12  1  0  0  0  0
 11 35  1  0  0  0  0
 12 13  2  0  0  0  0
 12 36  1  0  0  0  0
 13 14  1  0  0  0  0
 13 37  1  0  0  0  0
 14 15  2  0  0  0  0
 14 38  1  0  0  0  0
 15 16  1  0  0  0  0
 17 18  2  0  0  0  0
 17 39  1  0  0  0  0
 18 40  1  0  0  0  0
 19 20  2  0  0  0  0
 19 29  1  0  0  0  0
 20 21  1  0  0  0  0
 20 41  1  0  0  0  0
 21 22  2  0  0  0  0
 21 42  1  0  0  0  0
 22 23  1  0  0  0  0
 22 28  1  0  0  0  0
 23 24  2  0  0  0  0
 23 27  1  0  0  0  0
 24 25  1  0  0  0  0
 25 26  1  0  0  0  0
 25 43  1  0  0  0  0
 26 27  2  0  0  0  0
 26 44  1  0  0  0  0
 28 29  2  0  0  0  0
 29 45  1  0  0  0  0
M  END
$$$$
