
 OpenBabel01122422533D

 45 48  0  0  0  0  0  0  0  0999 V2000
    5.7975   -1.5194    0.8237 C   0  0  0  0  0  0  0  0  0  0  0  0
    4.5704   -0.7056    0.6229 C   0  0  0  0  0  0  0  0  0  0  0  0
    4.5663    0.6151    0.6786 N   0  0  0  0  0  0  0  0  0  0  0  0
    3.3367    1.0076    0.2469 C   0  0  0  0  0  0  0  0  0  0  0  0
    2.5692   -0.0826   -0.0716 C   0  0  0  0  0  0  0  0  0  0  0  0
    3.3311   -1.1988    0.2198 N   0  0  0  0  0  0  0  0  0  0  0  0
    2.8789   -2.5462    0.1022 C   0  0  0  0  0  0  0  0  0  0  0  0
    1.8595   -2.8471   -0.8061 C   0  0  0  0  0  0  0  0  0  0  0  0
    1.3693   -4.1523   -0.9199 C   0  0  0  0  0  0  0  0  0  0  0  0
    1.8626   -5.1805   -0.1164 C   0  0  0  0  0  0  0  0  0  0  0  0
    1.3722   -6.5061   -0.1707 N   0  0  0  0  0  0  0  0  0  0  0  0
    0.2880   -6.9371   -0.9130 C   0  0  0  0  0  0  0  0  0  0  0  0
   -0.4762   -6.2611   -1.5899 O   0  0  0  0  0  0  0  0  0  0  0  0
   -0.0048   -8.4188   -0.8176 C   0  0  0  0  0  0  0  0  0  0  0  0
    0.0968   -8.9839    0.3602 N   0  0  0  0  0  0  0  0  0  0  0  0
   -0.2535  -10.3196    0.4541 N   0  0  0  0  0  0  0  0  0  0  0  0
   -0.3220  -10.8632    1.7802 C   0  0  0  0  0  0  0  0  0  0  0  0
   -0.6203  -10.0428    2.8828 C   0  0  0  0  0  0  0  0  0  0  0  0
   -0.8548  -10.5940    4.1496 C   0  0  0  0  0  0  0  0  0  0  0  0
   -0.7672  -11.9709    4.3470 C   0  0  0  0  0  0  0  0  0  0  0  0
   -0.4063  -12.7955    3.2864 C   0  0  0  0  0  0  0  0  0  0  0  0
   -0.1789  -12.2438    2.0290 C   0  0  0  0  0  0  0  0  0  0  0  0
    0.1826  -13.0804    1.0411 F   0  0  0  0  0  0  0  0  0  0  0  0
   -0.8256  -11.0015   -0.6071 C   0  0  0  0  0  0  0  0  0  0  0  0
   -0.9753  -10.5294   -1.8416 C   0  0  0  0  0  0  0  0  0  0  0  0
   -0.4490   -9.1813   -2.0487 C   0  0  0  0  0  0  0  0  0  0  0  0
   -0.3574   -8.7087   -3.1696 O   0  0  0  0  0  0  0  0  0  0  0  0
    2.8883   -4.8841    0.7849 C   0  0  0  0  0  0  0  0  0  0  0  0
    3.3937   -3.5763    0.8966 C   0  0  0  0  0  0  0  0  0  0  0  0
    6.6789   -0.8690    0.8321 H   0  0  0  0  0  0  0  0  0  0  0  0
    5.9324   -2.2398    0.0113 H   0  0  0  0  0  0  0  0  0  0  0  0
    5.7776   -2.0405    1.7834 H   0  0  0  0  0  0  0  0  0  0  0  0
    3.0642    2.0535    0.1850 H   0  0  0  0  0  0  0  0  0  0  0  0
    1.5464   -0.1453   -0.4136 H   0  0  0  0  0  0  0  0  0  0  0  0
    1.4414   -2.0963   -1.4722 H   0  0  0  0  0  0  0  0  0  0  0  0
    0.5952   -4.3213   -1.6619 H   0  0  0  0  0  0  0  0  0  0  0  0
    1.7987   -7.1946    0.4441 H   0  0  0  0  0  0  0  0  0  0  0  0
   -0.7323   -8.9699    2.7510 H   0  0  0  0  0  0  0  0  0  0  0  0
   -1.1321   -9.9450    4.9771 H   0  0  0  0  0  0  0  0  0  0  0  0
   -0.9773  -12.3991    5.3238 H   0  0  0  0  0  0  0  0  0  0  0  0
   -0.3143  -13.8700    3.4232 H   0  0  0  0  0  0  0  0  0  0  0  0
   -1.2076  -11.9929   -0.3789 H   0  0  0  0  0  0  0  0  0  0  0  0
   -1.4316  -11.0663   -2.6586 H   0  0  0  0  0  0  0  0  0  0  0  0
    3.2975   -5.6543    1.4349 H   0  0  0  0  0  0  0  0  0  0  0  0
    4.1381   -3.3939    1.6633 H   0  0  0  0  0  0  0  0  0  0  0  0
  1  2  1  0  0  0  0
  1 30  1  0  0  0  0
  1 31  1  0  0  0  0
  1 32  1  0  0  0  0
  2  3  2  0  0  0  0
  2  6  1  0  0  0  0
  3  4  1  0  0  0  0
  4  5  2  0  0  0  0
  4 33  1  0  0  0  0
  5  6  1  0  0  0  0
  5 34  1  0  0  0  0
  6  7  1  0  0  0  0
  7  8  2  0  0  0  0
  7 29  1  0  0  0  0
  8  9  1  0  0  0  0
  8 35  1  0  0  0  0
  9 10  2  0  0  0  0
  9 36  1  0  0  0  0
 10 11  1  0  0  0  0
 10 28  1  0  0  0  0
 11 12  1  0  0  0  0
 11 37  1  0  0  0  0
 12 13  2  0  0  0  0
 12 14  1  0  0  0  0
 14 15  2  0  0  0  0
 14 26  1  0  0  0  0
 15 16  1  0  0  0  0
 16 17  1  0  0  0  0
 16 24  1  0  0  0  0
 17 18  2  0  0  0  0
 17 22  1  0  0  0  0
 18 19  1  0  0  0  0
 18 38  1  0  0  0  0
 19 20  2  0  0  0  0
 19 39  1  0  0  0  0
 20 21  1  0  0  0  0
 20 40  1  0  0  0  0
 21 22  2  0  0  0  0
 21 41  1  0  0  0  0
 22 23  1  0  0  0  0
 24 25  2  0  0  0  0
 24 42  1  0  0  0  0
 25 26  1  0  0  0  0
 25 43  1  0  0  0  0
 26 27  2  0  0  0  0
 28 29  2  0  0  0  0
 28 44  1  0  0  0  0
 29 45  1  0  0  0  0
M  END
$$$$
