
 OpenBabel01122422533D

 51 54  0  0  0  0  0  0  0  0999 V2000
    9.4637   -1.9301   -6.2304 C   0  0  0  0  0  0  0  0  0  0  0  0
    9.3744   -1.5245   -4.8616 O   0  0  0  0  0  0  0  0  0  0  0  0
    8.5184   -2.2840   -4.1346 C   0  0  0  0  0  0  0  0  0  0  0  0
    7.8297   -3.1957   -4.5742 O   0  0  0  0  0  0  0  0  0  0  0  0
    8.5362   -1.9121   -2.6946 C   0  0  0  0  0  0  0  0  0  0  0  0
    9.2141   -0.7954   -2.2104 C   0  0  0  0  0  0  0  0  0  0  0  0
    9.1786   -0.5054   -0.8440 C   0  0  0  0  0  0  0  0  0  0  0  0
    8.4985   -1.3422    0.0586 C   0  0  0  0  0  0  0  0  0  0  0  0
    8.4789   -1.0217    1.4234 C   0  0  0  0  0  0  0  0  0  0  0  0
    7.8363   -1.8468    2.3406 C   0  0  0  0  0  0  0  0  0  0  0  0
    7.2357   -3.0252    1.9087 C   0  0  0  0  0  0  0  0  0  0  0  0
    7.2533   -3.3948    0.5514 C   0  0  0  0  0  0  0  0  0  0  0  0
    6.7039   -4.7655    0.2043 C   0  0  0  0  0  0  0  0  0  0  0  0
    5.2819   -4.7553   -0.0402 N   0  0  0  0  0  0  0  0  0  0  0  0
    4.3917   -5.4691    0.7331 C   0  0  0  0  0  0  0  0  0  0  0  0
    4.7205   -6.1038    1.7339 O   0  0  0  0  0  0  0  0  0  0  0  0
    2.9390   -5.3230    0.3279 C   0  0  0  0  0  0  0  0  0  0  0  0
    2.6536   -5.7639   -1.0666 C   0  0  0  0  0  0  0  0  0  0  0  0
    3.1542   -5.0792   -2.1024 N   0  0  0  0  0  0  0  0  0  0  0  0
    2.5256   -5.5866   -3.1975 N   0  0  0  0  0  0  0  0  0  0  0  0
    2.6607   -4.9599   -4.4658 C   0  0  0  0  0  0  0  0  0  0  0  0
    3.5281   -3.8657   -4.6051 C   0  0  0  0  0  0  0  0  0  0  0  0
    3.6435   -3.2127   -5.8327 C   0  0  0  0  0  0  0  0  0  0  0  0
    2.8889   -3.6395   -6.9232 C   0  0  0  0  0  0  0  0  0  0  0  0
    2.0231   -4.7238   -6.7911 C   0  0  0  0  0  0  0  0  0  0  0  0
    1.9091   -5.3896   -5.5681 C   0  0  0  0  0  0  0  0  0  0  0  0
    1.7488   -6.6737   -2.8616 C   0  0  0  0  0  0  0  0  0  0  0  0
    1.8028   -6.8038   -1.4936 C   0  0  0  0  0  0  0  0  0  0  0  0
    7.8463   -2.5172   -0.4019 C   0  0  0  0  0  0  0  0  0  0  0  0
    7.8494   -2.7505   -1.7964 C   0  0  0  0  0  0  0  0  0  0  0  0
   10.2061   -1.2941   -6.7291 H   0  0  0  0  0  0  0  0  0  0  0  0
    8.5002   -1.8023   -6.7307 H   0  0  0  0  0  0  0  0  0  0  0  0
    9.7993   -2.9682   -6.2941 H   0  0  0  0  0  0  0  0  0  0  0  0
    9.7683   -0.1385   -2.8756 H   0  0  0  0  0  0  0  0  0  0  0  0
    9.7024    0.3782   -0.4845 H   0  0  0  0  0  0  0  0  0  0  0  0
    8.9686   -0.1204    1.7863 H   0  0  0  0  0  0  0  0  0  0  0  0
    7.8267   -1.5853    3.3952 H   0  0  0  0  0  0  0  0  0  0  0  0
    6.7688   -3.6802    2.6445 H   0  0  0  0  0  0  0  0  0  0  0  0
    6.9422   -5.4597    1.0200 H   0  0  0  0  0  0  0  0  0  0  0  0
    7.1950   -5.1830   -0.6797 H   0  0  0  0  0  0  0  0  0  0  0  0
    4.9495   -4.4754   -0.9625 H   0  0  0  0  0  0  0  0  0  0  0  0
    2.6601   -4.2687    0.4399 H   0  0  0  0  0  0  0  0  0  0  0  0
    2.3219   -5.8929    1.0331 H   0  0  0  0  0  0  0  0  0  0  0  0
    4.1223   -3.5068   -3.7669 H   0  0  0  0  0  0  0  0  0  0  0  0
    4.3234   -2.3702   -5.9336 H   0  0  0  0  0  0  0  0  0  0  0  0
    2.9765   -3.1263   -7.8774 H   0  0  0  0  0  0  0  0  0  0  0  0
    1.4306   -5.0507   -7.6423 H   0  0  0  0  0  0  0  0  0  0  0  0
    1.2154   -6.2214   -5.5071 H   0  0  0  0  0  0  0  0  0  0  0  0
    1.1908   -7.2333   -3.5962 H   0  0  0  0  0  0  0  0  0  0  0  0
    1.2567   -7.5154   -0.8897 H   0  0  0  0  0  0  0  0  0  0  0  0
    7.3076   -3.6010   -2.2059 H   0  0  0  0  0  0  0  0  0  0  0  0
  1  2  1  0  0  0  0
  1 31  1  0  0  0  0
  1 32  1  0  0  0  0
  1 33  1  0  0  0  0
  2  3  1  0  0  0  0
  3  4  2  0  0  0  0
  3  5  1  0  0  0  0
  5  6  2  0  0  0  0
  5 30  1  0  0  0  0
  6  7  1  0  0  0  0
  6 34  1  0  0  0  0
  7  8  2  0  0  0  0
  7 35  1  0  0  0  0
  8  9  1  0  0  0  0
  8 29  1  0  0  0  0
  9 10  2  0  0  0  0
  9 36  1  0  0  0  0
 10 11  1  0  0  0  0
 10 37  1  0  0  0  0
 11 12  2  0  0  0  0
 11 38  1  0  0  0  0
 12 13  1  0  0  0  0
 12 29  1  0  0  0  0
 13 14  1  0  0  0  0
 13 39  1  0  0  0  0
 13 40  1  0  0  0  0
 14 15  1  0  0  0  0
 14 41  1  0  0  0  0
 15 16  2  0  0  0  0
 15 17  1  0  0  0  0
 17 18  1  0  0  0  0
 17 42  1  0  0  0  0
 17 43  1  0  0  0  0
 18 19  2  0  0  0  0
 18 28  1  0  0  0  0
 19 20  1  0  0  0  0
 20 21  1  0  0  0  0
 20 27  1  0  0  0  0
 21 22  2  0  0  0  0
 21 26  1  0  0  0  0
 22 23  1  0  0  0  0
 22 44  1  0  0  0  0
 23 24  2  0  0  0  0
 23 45  1  0  0  0  0
 24 25  1  0  0  0  0
 24 46  1  0  0  0  0
 25 26  2  0  0  0  0
 25 47  1  0  0  0  0
 26 48  1  0  0  0  0
 27 28  2  0  0  0  0
 27 49  1  0  0  0  0
 28 50  1  0  0  0  0
 29 30  2  0  0  0  0
 30 51  1  0  0  0  0
M  END
$$$$
