
 OpenBabel01122422533D

 49 52  0  0  1  0  0  0  0  0999 V2000
    1.0879   -0.0145    0.1391 O   0  0  0  0  0  0  0  0  0  0  0  0
    2.3089   -0.0854    0.0565 C   0  0  0  0  0  0  0  0  0  0  0  0
    2.9560   -0.6242   -1.0278 N   0  0  0  0  0  0  0  0  0  0  0  0
    2.2804   -1.2493   -2.1661 C   0  0  3  0  0  0  0  0  0  0  0  0
    1.3173   -0.2871   -2.9059 C   0  0  0  0  0  0  0  0  0  0  0  0
    2.0189    0.8830   -3.5440 C   0  0  0  0  0  0  0  0  0  0  0  0
    2.1863    2.0752   -2.8444 C   0  0  0  0  0  0  0  0  0  0  0  0
    2.9347    3.0938   -3.4209 C   0  0  0  0  0  0  0  0  0  0  0  0
    3.4939    2.8957   -4.6772 C   0  0  0  0  0  0  0  0  0  0  0  0
    3.2538    1.6933   -5.3187 C   0  0  0  0  0  0  0  0  0  0  0  0
    2.5180    0.6945   -4.7908 N   0  0  0  0  0  0  0  0  0  0  0  0
    3.2888   -1.9213   -3.1102 C   0  0  0  0  0  0  0  0  0  0  0  0
    2.8366   -2.6366   -4.2232 C   0  0  0  0  0  0  0  0  0  0  0  0
    3.7615   -3.2018   -5.0973 C   0  0  0  0  0  0  0  0  0  0  0  0
    5.1161   -3.0563   -4.8385 C   0  0  0  0  0  0  0  0  0  0  0  0
    5.4881   -2.3555   -3.7015 C   0  0  0  0  0  0  0  0  0  0  0  0
    4.6191   -1.7974   -2.8316 N   0  0  0  0  0  0  0  0  0  0  0  0
    3.1570    0.4993    1.1330 C   0  0  0  0  0  0  0  0  0  0  0  0
    2.6023    1.5253    1.9159 C   0  0  0  0  0  0  0  0  0  0  0  0
    3.3499    2.1434    2.9270 C   0  0  0  0  0  0  0  0  0  0  0  0
    4.6788    1.7530    3.1420 C   0  0  0  0  0  0  0  0  0  0  0  0
    5.4753    2.4184    4.1153 N   0  0  0  0  0  0  0  0  0  0  0  0
    5.0301    3.1125    5.2238 C   0  0  0  0  0  0  0  0  0  0  0  0
    6.1176    3.5934    5.9222 C   0  0  0  0  0  0  0  0  0  0  0  0
    7.2737    3.2209    5.2068 C   0  0  0  0  0  0  0  0  0  0  0  0
    6.8567    2.4973    4.1116 C   0  0  0  0  0  0  0  0  0  0  0  0
    5.2266    0.7098    2.3875 C   0  0  0  0  0  0  0  0  0  0  0  0
    4.4613    0.0768    1.4054 C   0  0  0  0  0  0  0  0  0  0  0  0
    5.0050   -0.9779    0.7265 O   0  0  0  0  0  0  0  0  0  0  0  0
    3.9686   -0.7492   -0.9952 H   0  0  0  0  0  0  0  0  0  0  0  0
    1.6755   -2.0575   -1.7339 H   0  0  0  0  0  0  0  0  0  0  0  0
    0.5406    0.0872   -2.2285 H   0  0  0  0  0  0  0  0  0  0  0  0
    0.7676   -0.8252   -3.6868 H   0  0  0  0  0  0  0  0  0  0  0  0
    1.7587    2.1999   -1.8542 H   0  0  0  0  0  0  0  0  0  0  0  0
    3.0955    4.0238   -2.8865 H   0  0  0  0  0  0  0  0  0  0  0  0
    4.1058    3.6593   -5.1446 H   0  0  0  0  0  0  0  0  0  0  0  0
    3.6686    1.4902   -6.3019 H   0  0  0  0  0  0  0  0  0  0  0  0
    1.7768   -2.7331   -4.4331 H   0  0  0  0  0  0  0  0  0  0  0  0
    3.4217   -3.7357   -5.9799 H   0  0  0  0  0  0  0  0  0  0  0  0
    5.8600   -3.4745   -5.5059 H   0  0  0  0  0  0  0  0  0  0  0  0
    6.5409   -2.2145   -3.4633 H   0  0  0  0  0  0  0  0  0  0  0  0
    1.5840    1.8626    1.7265 H   0  0  0  0  0  0  0  0  0  0  0  0
    2.8903    2.9567    3.4847 H   0  0  0  0  0  0  0  0  0  0  0  0
    3.9780    3.1721    5.4637 H   0  0  0  0  0  0  0  0  0  0  0  0
    6.0783    4.1556    6.8466 H   0  0  0  0  0  0  0  0  0  0  0  0
    8.3012    3.4581    5.4524 H   0  0  0  0  0  0  0  0  0  0  0  0
    7.4414    2.0784    3.3039 H   0  0  0  0  0  0  0  0  0  0  0  0
    6.2379    0.3620    2.5762 H   0  0  0  0  0  0  0  0  0  0  0  0
    5.7455   -1.3454    1.2377 H   0  0  0  0  0  0  0  0  0  0  0  0
  1  2  2  0  0  0  0
  2  3  1  0  0  0  0
  2 18  1  0  0  0  0
  3  4  1  0  0  0  0
  3 30  1  0  0  0  0
  4  5  1  0  0  0  0
  4 12  1  0  0  0  0
  4 31  1  0  0  0  0
  5  6  1  0  0  0  0
  5 32  1  0  0  0  0
  5 33  1  0  0  0  0
  6  7  2  0  0  0  0
  6 11  1  0  0  0  0
  7  8  1  0  0  0  0
  7 34  1  0  0  0  0
  8  9  2  0  0  0  0
  8 35  1  0  0  0  0
  9 10  1  0  0  0  0
  9 36  1  0  0  0  0
 10 11  2  0  0  0  0
 10 37  1  0  0  0  0
 12 13  2  0  0  0  0
 12 17  1  0  0  0  0
 13 14  1  0  0  0  0
 13 38  1  0  0  0  0
 14 15  2  0  0  0  0
 14 39  1  0  0  0  0
 15 16  1  0  0  0  0
 15 40  1  0  0  0  0
 16 17  2  0  0  0  0
 16 41  1  0  0  0  0
 18 19  2  0  0  0  0
 18 28  1  0  0  0  0
 19 20  1  0  0  0  0
 19 42  1  0  0  0  0
 20 21  2  0  0  0  0
 20 43  1  0  0  0  0
 21 22  1  0  0  0  0
 21 27  1  0  0  0  0
 22 23  1  0  0  0  0
 22 26  1  0  0  0  0
 23 24  2  0  0  0  0
 23 44  1  0  0  0  0
 24 25  1  0  0  0  0
 24 45  1  0  0  0  0
 25 26  2  0  0  0  0
 25 46  1  0  0  0  0
 26 47  1  0  0  0  0
 27 28  2  0  0  0  0
 27 48  1  0  0  0  0
 28 29  1  0  0  0  0
 29 49  1  0  0  0  0
M  END
$$$$
