
 OpenBabel01122422533D

 52 55  0  0  1  0  0  0  0  0999 V2000
    1.1063    0.2652    0.0287 O   0  0  0  0  0  0  0  0  0  0  0  0
    2.3116    0.0926   -0.1543 C   0  0  0  0  0  0  0  0  0  0  0  0
    3.0119   -0.8343    0.5869 N   0  0  0  0  0  0  0  0  0  0  0  0
    2.3519   -1.6727    1.6001 C   0  0  3  0  0  0  0  0  0  0  0  0
    1.2601   -2.6141    1.0223 C   0  0  0  0  0  0  0  0  0  0  0  0
    1.7624   -3.6234    0.0145 C   0  0  0  0  0  0  0  0  0  0  0  0
    2.1484   -4.9072    0.4211 C   0  0  0  0  0  0  0  0  0  0  0  0
    2.7174   -5.7959   -0.4919 C   0  0  0  0  0  0  0  0  0  0  0  0
    2.9002   -5.4127   -1.8190 C   0  0  0  0  0  0  0  0  0  0  0  0
    2.4686   -4.1592   -2.2460 C   0  0  0  0  0  0  0  0  0  0  0  0
    1.8888   -3.2744   -1.3370 C   0  0  0  0  0  0  0  0  0  0  0  0
    3.4070   -2.4425    2.4370 C   0  0  0  0  0  0  0  0  0  0  0  0
    4.6118   -2.3792    2.1914 O   0  0  0  0  0  0  0  0  0  0  0  0
    2.8988   -3.1902    3.4835 N   0  0  0  0  0  0  0  0  0  0  0  0
    3.7649   -3.8964    4.4080 C   0  0  0  0  0  0  0  0  0  0  0  0
    4.1160   -3.0626    5.5972 C   0  0  0  0  0  0  0  0  0  0  0  0
    4.9744   -3.3755    6.6432 C   0  0  0  0  0  0  0  0  0  0  0  0
    5.8376   -4.4945    7.0067 C   0  0  0  0  0  0  0  0  0  0  0  0
    6.4917   -5.2500    6.0236 C   0  0  0  0  0  0  0  0  0  0  0  0
    7.2859   -6.3464    6.3696 C   0  0  0  0  0  0  0  0  0  0  0  0
    7.4486   -6.6964    7.7068 C   0  0  0  0  0  0  0  0  0  0  0  0
    6.8237   -5.9458    8.6998 C   0  0  0  0  0  0  0  0  0  0  0  0
    6.0256   -4.8514    8.3513 C   0  0  0  0  0  0  0  0  0  0  0  0
    4.9441   -2.3258    7.5255 O   0  0  0  0  0  0  0  0  0  0  0  0
    4.0763   -1.4412    6.9631 C   0  0  0  0  0  0  0  0  0  0  0  0
    3.5255   -1.8283    5.8402 N   0  0  0  0  0  0  0  0  0  0  0  0
    3.0416    0.8287   -1.1697 C   0  0  0  0  0  0  0  0  0  0  0  0
    2.5623    1.7494   -2.0842 C   0  0  0  0  0  0  0  0  0  0  0  0
    3.6612    2.1653   -2.8703 C   0  0  0  0  0  0  0  0  0  0  0  0
    4.7478    1.4775   -2.3898 C   0  0  0  0  0  0  0  0  0  0  0  0
    4.3890    0.6604   -1.3593 O   0  0  0  0  0  0  0  0  0  0  0  0
    4.0218   -0.8963    0.4935 H   0  0  0  0  0  0  0  0  0  0  0  0
    1.8631   -0.9751    2.2927 H   0  0  0  0  0  0  0  0  0  0  0  0
    0.4605   -2.0295    0.5514 H   0  0  0  0  0  0  0  0  0  0  0  0
    0.7589   -3.1513    1.8377 H   0  0  0  0  0  0  0  0  0  0  0  0
    2.0239   -5.2210    1.4543 H   0  0  0  0  0  0  0  0  0  0  0  0
    3.0337   -6.7822   -0.1639 H   0  0  0  0  0  0  0  0  0  0  0  0
    3.3785   -6.0904   -2.5206 H   0  0  0  0  0  0  0  0  0  0  0  0
    2.5960   -3.8628   -3.2837 H   0  0  0  0  0  0  0  0  0  0  0  0
    1.5517   -2.3016   -1.6883 H   0  0  0  0  0  0  0  0  0  0  0  0
    1.9457   -3.0388    3.7831 H   0  0  0  0  0  0  0  0  0  0  0  0
    4.6641   -4.2173    3.8781 H   0  0  0  0  0  0  0  0  0  0  0  0
    3.2184   -4.7860    4.7408 H   0  0  0  0  0  0  0  0  0  0  0  0
    6.4180   -4.9854    4.9729 H   0  0  0  0  0  0  0  0  0  0  0  0
    7.7836   -6.9214    5.5914 H   0  0  0  0  0  0  0  0  0  0  0  0
    8.0667   -7.5498    7.9743 H   0  0  0  0  0  0  0  0  0  0  0  0
    6.9561   -6.2121    9.7461 H   0  0  0  0  0  0  0  0  0  0  0  0
    5.5426   -4.2806    9.1432 H   0  0  0  0  0  0  0  0  0  0  0  0
    3.9233   -0.5142    7.5028 H   0  0  0  0  0  0  0  0  0  0  0  0
    1.5308    2.0648   -2.1668 H   0  0  0  0  0  0  0  0  0  0  0  0
    3.6541    2.8760   -3.6862 H   0  0  0  0  0  0  0  0  0  0  0  0
    5.7950    1.4581   -2.6654 H   0  0  0  0  0  0  0  0  0  0  0  0
  1  2  2  0  0  0  0
  2  3  1  0  0  0  0
  2 27  1  0  0  0  0
  3  4  1  0  0  0  0
  3 32  1  0  0  0  0
  4  5  1  0  0  0  0
  4 12  1  0  0  0  0
  4 33  1  0  0  0  0
  5  6  1  0  0  0  0
  5 34  1  0  0  0  0
  5 35  1  0  0  0  0
  6  7  2  0  0  0  0
  6 11  1  0  0  0  0
  7  8  1  0  0  0  0
  7 36  1  0  0  0  0
  8  9  2  0  0  0  0
  8 37  1  0  0  0  0
  9 10  1  0  0  0  0
  9 38  1  0  0  0  0
 10 11  2  0  0  0  0
 10 39  1  0  0  0  0
 11 40  1  0  0  0  0
 12 13  2  0  0  0  0
 12 14  1  0  0  0  0
 14 15  1  0  0  0  0
 14 41  1  0  0  0  0
 15 16  1  0  0  0  0
 15 42  1  0  0  0  0
 15 43  1  0  0  0  0
 16 17  2  0  0  0  0
 16 26  1  0  0  0  0
 17 18  1  0  0  0  0
 17 24  1  0  0  0  0
 18 19  2  0  0  0  0
 18 23  1  0  0  0  0
 19 20  1  0  0  0  0
 19 44  1  0  0  0  0
 20 21  2  0  0  0  0
 20 45  1  0  0  0  0
 21 22  1  0  0  0  0
 21 46  1  0  0  0  0
 22 23  2  0  0  0  0
 22 47  1  0  0  0  0
 23 48  1  0  0  0  0
 24 25  1  0  0  0  0
 25 26  2  0  0  0  0
 25 49  1  0  0  0  0
 27 28  2  0  0  0  0
 27 31  1  0  0  0  0
 28 29  1  0  0  0  0
 28 50  1  0  0  0  0
 29 30  2  0  0  0  0
 29 51  1  0  0  0  0
 30 31  1  0  0  0  0
 30 52  1  0  0  0  0
M  END
$$$$
