
 OpenBabel01122422533D

 40 43  0  0  0  0  0  0  0  0999 V2000
    3.1361   -2.6114   -2.8252 O   0  0  0  0  0  0  0  0  0  0  0  0
    3.1914   -3.5894   -2.0920 C   0  0  0  0  0  0  0  0  0  0  0  0
    3.7239   -4.8662   -2.6868 C   0  0  0  0  0  0  0  0  0  0  0  0
    3.9228   -5.9573   -2.0214 N   0  0  0  0  0  0  0  0  0  0  0  0
    3.6366   -5.9417   -0.6491 C   0  0  0  0  0  0  0  0  0  0  0  0
    3.0933   -4.8134    0.0129 C   0  0  0  0  0  0  0  0  0  0  0  0
    2.8801   -4.8865    1.3948 C   0  0  0  0  0  0  0  0  0  0  0  0
    3.1974   -6.0470    2.0965 C   0  0  0  0  0  0  0  0  0  0  0  0
    3.0078   -6.0755    3.4222 F   0  0  0  0  0  0  0  0  0  0  0  0
    3.7292   -7.1462    1.4400 C   0  0  0  0  0  0  0  0  0  0  0  0
    4.0492   -8.2511    2.1284 F   0  0  0  0  0  0  0  0  0  0  0  0
    3.9430   -7.1025    0.0720 C   0  0  0  0  0  0  0  0  0  0  0  0
    2.8228   -3.6346   -0.7488 N   0  0  0  0  0  0  0  0  0  0  0  0
    2.3219   -2.4071   -0.1406 C   0  0  0  0  0  0  0  0  0  0  0  0
    0.8146   -2.2606   -0.1087 C   0  0  0  0  0  0  0  0  0  0  0  0
    0.1471   -1.6452   -1.1764 C   0  0  0  0  0  0  0  0  0  0  0  0
   -1.2029   -1.3612   -1.0491 C   0  0  0  0  0  0  0  0  0  0  0  0
   -1.9338   -1.6645    0.0401 N   0  0  0  0  0  0  0  0  0  0  0  0
   -1.3007   -2.3187    1.0367 C   0  0  0  0  0  0  0  0  0  0  0  0
   -1.9856   -2.6580    2.2067 O   0  0  0  0  0  0  0  0  0  0  0  0
   -3.3635   -2.6403    2.1907 C   0  0  0  0  0  0  0  0  0  0  0  0
   -4.1216   -3.1656    1.1429 C   0  0  0  0  0  0  0  0  0  0  0  0
   -5.5152   -3.1119    1.1859 C   0  0  0  0  0  0  0  0  0  0  0  0
   -6.1566   -2.5760    2.3008 C   0  0  0  0  0  0  0  0  0  0  0  0
   -5.4053   -2.1016    3.3764 C   0  0  0  0  0  0  0  0  0  0  0  0
   -4.0088   -2.1376    3.3242 C   0  0  0  0  0  0  0  0  0  0  0  0
    0.0538   -2.6252    1.0098 C   0  0  0  0  0  0  0  0  0  0  0  0
    3.9485   -4.8179   -3.7643 H   0  0  0  0  0  0  0  0  0  0  0  0
    2.4968   -4.0600    1.9758 H   0  0  0  0  0  0  0  0  0  0  0  0
    4.3693   -7.9634   -0.4326 H   0  0  0  0  0  0  0  0  0  0  0  0
    2.7230   -1.5503   -0.6989 H   0  0  0  0  0  0  0  0  0  0  0  0
    2.7398   -2.2760    0.8626 H   0  0  0  0  0  0  0  0  0  0  0  0
    0.6739   -1.3460   -2.0771 H   0  0  0  0  0  0  0  0  0  0  0  0
   -1.7488   -0.8469   -1.8370 H   0  0  0  0  0  0  0  0  0  0  0  0
   -3.6360   -3.5946    0.2714 H   0  0  0  0  0  0  0  0  0  0  0  0
   -6.0941   -3.4816    0.3446 H   0  0  0  0  0  0  0  0  0  0  0  0
   -7.2421   -2.5299    2.3299 H   0  0  0  0  0  0  0  0  0  0  0  0
   -5.9084   -1.6975    4.2512 H   0  0  0  0  0  0  0  0  0  0  0  0
   -3.4299   -1.7623    4.1640 H   0  0  0  0  0  0  0  0  0  0  0  0
    0.4957   -3.1086    1.8732 H   0  0  0  0  0  0  0  0  0  0  0  0
  1  2  2  0  0  0  0
  2  3  1  0  0  0  0
  2 13  1  0  0  0  0
  3  4  2  0  0  0  0
  3 28  1  0  0  0  0
  4  5  1  0  0  0  0
  5  6  2  0  0  0  0
  5 12  1  0  0  0  0
  6  7  1  0  0  0  0
  6 13  1  0  0  0  0
  7  8  2  0  0  0  0
  7 29  1  0  0  0  0
  8  9  1  0  0  0  0
  8 10  1  0  0  0  0
 10 11  1  0  0  0  0
 10 12  2  0  0  0  0
 12 30  1  0  0  0  0
 13 14  1  0  0  0  0
 14 15  1  0  0  0  0
 14 31  1  0  0  0  0
 14 32  1  0  0  0  0
 15 16  2  0  0  0  0
 15 27  1  0  0  0  0
 16 17  1  0  0  0  0
 16 33  1  0  0  0  0
 17 18  2  0  0  0  0
 17 34  1  0  0  0  0
 18 19  1  0  0  0  0
 19 20  1  0  0  0  0
 19 27  2  0  0  0  0
 20 21  1  0  0  0  0
 21 22  2  0  0  0  0
 21 26  1  0  0  0  0
 22 23  1  0  0  0  0
 22 35  1  0  0  0  0
 23 24  2  0  0  0  0
 23 36  1  0  0  0  0
 24 25  1  0  0  0  0
 24 37  1  0  0  0  0
 25 26  2  0  0  0  0
 25 38  1  0  0  0  0
 26 39  1  0  0  0  0
 27 40  1  0  0  0  0
M  END
$$$$
