
 OpenBabel01122422533D

 40 43  0  0  0  0  0  0  0  0999 V2000
    1.1360    0.0127    0.3449 O   0  0  0  0  0  0  0  0  0  0  0  0
    2.3352   -0.0868    0.1174 C   0  0  0  0  0  0  0  0  0  0  0  0
    2.9152   -0.5596   -1.0461 N   0  0  0  0  0  0  0  0  0  0  0  0
    2.2183   -0.9371   -2.2154 C   0  0  0  0  0  0  0  0  0  0  0  0
    0.8898   -0.5956   -2.4628 C   0  0  0  0  0  0  0  0  0  0  0  0
    0.2313   -1.0531   -3.6135 C   0  0  0  0  0  0  0  0  0  0  0  0
    0.8696   -1.8848   -4.5458 C   0  0  0  0  0  0  0  0  0  0  0  0
    0.1680   -2.4040   -5.6523 N   0  0  0  0  0  0  0  0  0  0  0  0
   -1.1362   -2.2721   -6.0440 C   0  0  0  0  0  0  0  0  0  0  0  0
   -1.4063   -2.9590   -7.1566 C   0  0  0  0  0  0  0  0  0  0  0  0
   -0.1340   -3.6502   -7.4798 C   0  0  0  0  0  0  0  0  0  0  0  0
   -0.0057   -4.4996   -8.3401 O   0  0  0  0  0  0  0  0  0  0  0  0
    0.8109   -3.1852   -6.5885 N   0  0  0  0  0  0  0  0  0  0  0  0
    2.2221   -2.1736   -4.2947 C   0  0  0  0  0  0  0  0  0  0  0  0
    2.9156   -2.9635   -5.1327 F   0  0  0  0  0  0  0  0  0  0  0  0
    2.8962   -1.6976   -3.1658 C   0  0  0  0  0  0  0  0  0  0  0  0
    3.2826    0.2057    1.2268 C   0  0  0  0  0  0  0  0  0  0  0  0
    4.5546    0.7930    1.0266 C   0  0  0  0  0  0  0  0  0  0  0  0
    5.3894    0.9877    2.1308 C   0  0  0  0  0  0  0  0  0  0  0  0
    5.0108    0.4555    3.3683 C   0  0  0  0  0  0  0  0  0  0  0  0
    5.9372    0.5018    4.4448 N   0  0  0  0  0  0  0  0  0  0  0  0
    6.5126    1.7497    4.5858 C   0  0  0  0  0  0  0  0  0  0  0  0
    6.5967    2.3553    5.6470 O   0  0  0  0  0  0  0  0  0  0  0  0
    7.0862    2.2677    3.3163 C   0  0  0  0  0  0  0  0  0  0  0  0
    6.5921    1.8573    2.1360 C   0  0  0  0  0  0  0  0  0  0  0  0
    3.7264   -0.0257    3.5794 C   0  0  0  0  0  0  0  0  0  0  0  0
    3.3182   -0.3672    4.8077 F   0  0  0  0  0  0  0  0  0  0  0  0
    2.8449   -0.1105    2.5186 C   0  0  0  0  0  0  0  0  0  0  0  0
    3.8885   -0.8322   -0.9989 H   0  0  0  0  0  0  0  0  0  0  0  0
    0.3253    0.0303   -1.7766 H   0  0  0  0  0  0  0  0  0  0  0  0
   -0.8034   -0.7500   -3.7486 H   0  0  0  0  0  0  0  0  0  0  0  0
   -1.8384   -1.6784   -5.4780 H   0  0  0  0  0  0  0  0  0  0  0  0
   -2.3256   -3.0809   -7.6994 H   0  0  0  0  0  0  0  0  0  0  0  0
    1.6430   -3.7150   -6.3631 H   0  0  0  0  0  0  0  0  0  0  0  0
    3.9382   -1.9730   -3.0414 H   0  0  0  0  0  0  0  0  0  0  0  0
    4.8425    1.1464    0.0389 H   0  0  0  0  0  0  0  0  0  0  0  0
    6.7143   -0.0892    4.1438 H   0  0  0  0  0  0  0  0  0  0  0  0
    7.8647    3.0238    3.4243 H   0  0  0  0  0  0  0  0  0  0  0  0
    6.9715    2.2556    1.1995 H   0  0  0  0  0  0  0  0  0  0  0  0
    1.8253   -0.4416    2.7067 H   0  0  0  0  0  0  0  0  0  0  0  0
  1  2  2  0  0  0  0
  2  3  1  0  0  0  0
  2 17  1  0  0  0  0
  3  4  1  0  0  0  0
  3 29  1  0  0  0  0
  4  5  2  0  0  0  0
  4 16  1  0  0  0  0
  5  6  1  0  0  0  0
  5 30  1  0  0  0  0
  6  7  2  0  0  0  0
  6 31  1  0  0  0  0
  7  8  1  0  0  0  0
  7 14  1  0  0  0  0
  8  9  1  0  0  0  0
  8 13  1  0  0  0  0
  9 10  2  0  0  0  0
  9 32  1  0  0  0  0
 10 11  1  0  0  0  0
 10 33  1  0  0  0  0
 11 12  2  0  0  0  0
 11 13  1  0  0  0  0
 13 34  1  0  0  0  0
 14 15  1  0  0  0  0
 14 16  2  0  0  0  0
 16 35  1  0  0  0  0
 17 18  2  0  0  0  0
 17 28  1  0  0  0  0
 18 19  1  0  0  0  0
 18 36  1  0  0  0  0
 19 20  2  0  0  0  0
 19 25  1  0  0  0  0
 20 21  1  0  0  0  0
 20 26  1  0  0  0  0
 21 22  1  0  0  0  0
 21 37  1  0  0  0  0
 22 23  2  0  0  0  0
 22 24  1  0  0  0  0
 24 25  2  0  0  0  0
 24 38  1  0  0  0  0
 25 39  1  0  0  0  0
 26 27  1  0  0  0  0
 26 28  2  0  0  0  0
 28 40  1  0  0  0  0
M  END
$$$$
