
 OpenBabel01122422533D

 45 48  0  0  0  0  0  0  0  0999 V2000
   -3.2013    0.0850    0.4990 C   0  0  0  0  0  0  0  0  0  0  0  0
   -1.8797   -0.3188    0.0507 N   0  0  0  0  0  0  0  0  0  0  0  0
   -1.4538   -1.6273    0.2118 C   0  0  0  0  0  0  0  0  0  0  0  0
   -0.2689   -2.0705   -0.2444 C   0  0  0  0  0  0  0  0  0  0  0  0
    0.1869   -3.4507    0.1351 C   0  0  0  0  0  0  0  0  0  0  0  0
    1.3714   -3.6146    0.4352 O   0  0  0  0  0  0  0  0  0  0  0  0
   -0.7412   -4.4726    0.0780 N   0  0  0  0  0  0  0  0  0  0  0  0
   -0.4866   -5.8141    0.3582 C   0  0  0  0  0  0  0  0  0  0  0  0
    0.6126   -6.2784    0.9798 C   0  0  0  0  0  0  0  0  0  0  0  0
    0.8591   -7.6794    1.1490 C   0  0  0  0  0  0  0  0  0  0  0  0
    0.0081   -8.5735    0.6420 C   0  0  0  0  0  0  0  0  0  0  0  0
   -1.1655   -8.1908    0.0052 N   0  0  0  0  0  0  0  0  0  0  0  0
   -1.9934   -9.1914   -0.5927 C   0  0  0  0  0  0  0  0  0  0  0  0
   -1.4166  -10.1579   -1.4333 C   0  0  0  0  0  0  0  0  0  0  0  0
   -2.2097  -11.1208   -2.0593 C   0  0  0  0  0  0  0  0  0  0  0  0
   -3.5805  -11.1556   -1.8123 C   0  0  0  0  0  0  0  0  0  0  0  0
   -4.1563  -10.2263   -0.9476 C   0  0  0  0  0  0  0  0  0  0  0  0
   -3.3701   -9.2357   -0.3521 C   0  0  0  0  0  0  0  0  0  0  0  0
   -1.5242   -6.8276   -0.1144 C   0  0  0  0  0  0  0  0  0  0  0  0
   -2.5558   -6.3862   -0.6259 O   0  0  0  0  0  0  0  0  0  0  0  0
    0.6281   -1.1020   -0.9290 C   0  0  0  0  0  0  0  0  0  0  0  0
    1.8658   -1.4668   -1.4881 C   0  0  0  0  0  0  0  0  0  0  0  0
    2.7000   -0.5197   -2.0948 C   0  0  0  0  0  0  0  0  0  0  0  0
    2.3116    0.8131   -2.1644 C   0  0  0  0  0  0  0  0  0  0  0  0
    1.0810    1.1962   -1.6395 C   0  0  0  0  0  0  0  0  0  0  0  0
    0.2427    0.2430   -1.0368 C   0  0  0  0  0  0  0  0  0  0  0  0
   -1.0855    0.6705   -0.5341 C   0  0  0  0  0  0  0  0  0  0  0  0
   -1.4402    1.8416   -0.6554 O   0  0  0  0  0  0  0  0  0  0  0  0
   -3.7173   -0.7218    1.0257 H   0  0  0  0  0  0  0  0  0  0  0  0
   -3.7861    0.3779   -0.3797 H   0  0  0  0  0  0  0  0  0  0  0  0
   -3.1145    0.9536    1.1604 H   0  0  0  0  0  0  0  0  0  0  0  0
   -2.1260   -2.2713    0.7730 H   0  0  0  0  0  0  0  0  0  0  0  0
   -1.6503   -4.3032   -0.3438 H   0  0  0  0  0  0  0  0  0  0  0  0
    1.3850   -5.6244    1.3653 H   0  0  0  0  0  0  0  0  0  0  0  0
    1.7636   -7.9865    1.6647 H   0  0  0  0  0  0  0  0  0  0  0  0
    0.1935   -9.6385    0.7546 H   0  0  0  0  0  0  0  0  0  0  0  0
   -0.3524  -10.1316   -1.6578 H   0  0  0  0  0  0  0  0  0  0  0  0
   -1.7611  -11.8308   -2.7494 H   0  0  0  0  0  0  0  0  0  0  0  0
   -4.2006  -11.9032   -2.3006 H   0  0  0  0  0  0  0  0  0  0  0  0
   -5.2231  -10.2661   -0.7414 H   0  0  0  0  0  0  0  0  0  0  0  0
   -3.8354   -8.5231    0.3241 H   0  0  0  0  0  0  0  0  0  0  0  0
    2.2180   -2.4955   -1.4595 H   0  0  0  0  0  0  0  0  0  0  0  0
    3.6573   -0.8302   -2.5076 H   0  0  0  0  0  0  0  0  0  0  0  0
    2.9602    1.5496   -2.6320 H   0  0  0  0  0  0  0  0  0  0  0  0
    0.7704    2.2371   -1.7035 H   0  0  0  0  0  0  0  0  0  0  0  0
  1  2  1  0  0  0  0
  1 29  1  0  0  0  0
  1 30  1  0  0  0  0
  1 31  1  0  0  0  0
  2  3  1  0  0  0  0
  2 27  1  0  0  0  0
  3  4  2  0  0  0  0
  3 32  1  0  0  0  0
  4  5  1  0  0  0  0
  4 21  1  0  0  0  0
  5  6  2  0  0  0  0
  5  7  1  0  0  0  0
  7  8  1  0  0  0  0
  7 33  1  0  0  0  0
  8  9  2  0  0  0  0
  8 19  1  0  0  0  0
  9 10  1  0  0  0  0
  9 34  1  0  0  0  0
 10 11  2  0  0  0  0
 10 35  1  0  0  0  0
 11 12  1  0  0  0  0
 11 36  1  0  0  0  0
 12 13  1  0  0  0  0
 12 19  1  0  0  0  0
 13 14  2  0  0  0  0
 13 18  1  0  0  0  0
 14 15  1  0  0  0  0
 14 37  1  0  0  0  0
 15 16  2  0  0  0  0
 15 38  1  0  0  0  0
 16 17  1  0  0  0  0
 16 39  1  0  0  0  0
 17 18  2  0  0  0  0
 17 40  1  0  0  0  0
 18 41  1  0  0  0  0
 19 20  2  0  0  0  0
 21 22  2  0  0  0  0
 21 26  1  0  0  0  0
 22 23  1  0  0  0  0
 22 42  1  0  0  0  0
 23 24  2  0  0  0  0
 23 43  1  0  0  0  0
 24 25  1  0  0  0  0
 24 44  1  0  0  0  0
 25 26  2  0  0  0  0
 25 45  1  0  0  0  0
 26 27  1  0  0  0  0
 27 28  2  0  0  0  0
M  END
$$$$
