
 OpenBabel01122422533D

 41 44  0  0  0  0  0  0  0  0999 V2000
    1.2888    0.0687   -0.8016 O   0  0  0  0  0  0  0  0  0  0  0  0
    2.3367   -0.0659   -0.1838 C   0  0  0  0  0  0  0  0  0  0  0  0
    2.8953   -1.2569    0.2519 N   0  0  0  0  0  0  0  0  0  0  0  0
    2.3395   -2.5413    0.0823 C   0  0  0  0  0  0  0  0  0  0  0  0
    1.2630   -2.8115   -0.7622 C   0  0  0  0  0  0  0  0  0  0  0  0
    0.6654   -4.0728   -0.7626 C   0  0  0  0  0  0  0  0  0  0  0  0
    1.1310   -5.0666    0.1055 C   0  0  0  0  0  0  0  0  0  0  0  0
    0.3756   -6.2605    0.2400 N   0  0  0  0  0  0  0  0  0  0  0  0
   -0.3278   -6.7120   -0.8355 N   0  0  0  0  0  0  0  0  0  0  0  0
   -0.8310   -7.8822   -0.4536 C   0  0  0  0  0  0  0  0  0  0  0  0
   -0.5500   -8.1606    0.8865 C   0  0  0  0  0  0  0  0  0  0  0  0
    0.1654   -7.0665    1.3413 C   0  0  0  0  0  0  0  0  0  0  0  0
    0.5268   -6.7390    2.7310 C   0  0  0  0  0  0  0  0  0  0  0  0
    0.9356   -5.4696    2.9516 F   0  0  0  0  0  0  0  0  0  0  0  0
   -0.5347   -6.9278    3.5603 F   0  0  0  0  0  0  0  0  0  0  0  0
    1.5140   -7.5541    3.1816 F   0  0  0  0  0  0  0  0  0  0  0  0
    2.2947   -4.8450    0.8450 C   0  0  0  0  0  0  0  0  0  0  0  0
    2.8924   -3.5811    0.8381 C   0  0  0  0  0  0  0  0  0  0  0  0
    3.0979    1.1487    0.1840 C   0  0  0  0  0  0  0  0  0  0  0  0
    4.4821    1.1416    0.0057 C   0  0  0  0  0  0  0  0  0  0  0  0
    5.2928    2.1839    0.2950 N   0  0  0  0  0  0  0  0  0  0  0  0
    4.6904    3.3079    0.7526 C   0  0  0  0  0  0  0  0  0  0  0  0
    3.3220    3.4125    0.9459 C   0  0  0  0  0  0  0  0  0  0  0  0
    2.4895    2.3177    0.6686 C   0  0  0  0  0  0  0  0  0  0  0  0
    1.0454    2.4690    0.9353 C   0  0  0  0  0  0  0  0  0  0  0  0
    0.5666    3.6161    1.4240 C   0  0  0  0  0  0  0  0  0  0  0  0
    1.3867    4.6769    1.6764 N   0  0  0  0  0  0  0  0  0  0  0  0
    2.7504    4.6746    1.4643 C   0  0  0  0  0  0  0  0  0  0  0  0
    3.4498    5.6505    1.6971 O   0  0  0  0  0  0  0  0  0  0  0  0
    3.6877   -1.2066    0.8800 H   0  0  0  0  0  0  0  0  0  0  0  0
    0.8385   -2.0546   -1.4131 H   0  0  0  0  0  0  0  0  0  0  0  0
   -0.2082   -4.2367   -1.3924 H   0  0  0  0  0  0  0  0  0  0  0  0
   -1.4087   -8.4634   -1.1618 H   0  0  0  0  0  0  0  0  0  0  0  0
   -0.8873   -9.0026    1.4758 H   0  0  0  0  0  0  0  0  0  0  0  0
    2.7473   -5.6259    1.4496 H   0  0  0  0  0  0  0  0  0  0  0  0
    3.7591   -3.4155    1.4709 H   0  0  0  0  0  0  0  0  0  0  0  0
    5.0017    0.2729   -0.3930 H   0  0  0  0  0  0  0  0  0  0  0  0
    5.3602    4.1368    0.9656 H   0  0  0  0  0  0  0  0  0  0  0  0
    0.3721    1.6390    0.7381 H   0  0  0  0  0  0  0  0  0  0  0  0
   -0.4890    3.7556    1.6339 H   0  0  0  0  0  0  0  0  0  0  0  0
    1.0021    5.5400    2.0438 H   0  0  0  0  0  0  0  0  0  0  0  0
  1  2  2  0  0  0  0
  2  3  1  0  0  0  0
  2 19  1  0  0  0  0
  3  4  1  0  0  0  0
  3 30  1  0  0  0  0
  4  5  2  0  0  0  0
  4 18  1  0  0  0  0
  5  6  1  0  0  0  0
  5 31  1  0  0  0  0
  6  7  2  0  0  0  0
  6 32  1  0  0  0  0
  7  8  1  0  0  0  0
  7 17  1  0  0  0  0
  8  9  1  0  0  0  0
  8 12  1  0  0  0  0
  9 10  2  0  0  0  0
 10 11  1  0  0  0  0
 10 33  1  0  0  0  0
 11 12  2  0  0  0  0
 11 34  1  0  0  0  0
 12 13  1  0  0  0  0
 13 14  1  0  0  0  0
 13 15  1  0  0  0  0
 13 16  1  0  0  0  0
 17 18  2  0  0  0  0
 17 35  1  0  0  0  0
 18 36  1  0  0  0  0
 19 20  2  0  0  0  0
 19 24  1  0  0  0  0
 20 21  1  0  0  0  0
 20 37  1  0  0  0  0
 21 22  2  0  0  0  0
 22 23  1  0  0  0  0
 22 38  1  0  0  0  0
 23 24  2  0  0  0  0
 23 28  1  0  0  0  0
 24 25  1  0  0  0  0
 25 26  2  0  0  0  0
 25 39  1  0  0  0  0
 26 27  1  0  0  0  0
 26 40  1  0  0  0  0
 27 28  1  0  0  0  0
 27 41  1  0  0  0  0
 28 29  2  0  0  0  0
M  END
$$$$
