
 OpenBabel01122422533D

 47 50  0  0  0  0  0  0  0  0999 V2000
    0.9975    0.2007   -0.0012 O   0  0  0  0  0  0  0  0  0  0  0  0
    2.2113    0.0369    0.0372 C   0  0  0  0  0  0  0  0  0  0  0  0
    2.9063   -0.1935    1.2043 N   0  0  0  0  0  0  0  0  0  0  0  0
    2.2342   -0.2391    2.4851 C   0  0  0  0  0  0  0  0  0  0  0  0
    2.4155   -1.5787    3.1425 C   0  0  0  0  0  0  0  0  0  0  0  0
    3.0450   -1.6945    4.3862 C   0  0  0  0  0  0  0  0  0  0  0  0
    3.1552   -2.9508    4.9576 C   0  0  0  0  0  0  0  0  0  0  0  0
    2.6994   -4.0841    4.3822 N   0  0  0  0  0  0  0  0  0  0  0  0
    2.0917   -3.9524    3.1840 C   0  0  0  0  0  0  0  0  0  0  0  0
    1.9268   -2.7404    2.5341 C   0  0  0  0  0  0  0  0  0  0  0  0
    3.0152    0.1507   -1.2028 C   0  0  0  0  0  0  0  0  0  0  0  0
    2.5726    1.0289   -2.1972 C   0  0  0  0  0  0  0  0  0  0  0  0
    3.2943    1.1755   -3.3856 C   0  0  0  0  0  0  0  0  0  0  0  0
    4.4570    0.4365   -3.5989 C   0  0  0  0  0  0  0  0  0  0  0  0
    5.2262    0.5158   -4.7775 N   0  0  0  0  0  0  0  0  0  0  0  0
    5.0432    1.3793   -5.8486 C   0  0  0  0  0  0  0  0  0  0  0  0
    4.2716    2.3220   -5.9255 O   0  0  0  0  0  0  0  0  0  0  0  0
    5.8466    1.0033   -7.0365 C   0  0  0  0  0  0  0  0  0  0  0  0
    7.2141    0.7143   -6.8912 C   0  0  0  0  0  0  0  0  0  0  0  0
    7.8778   -0.0279   -7.8690 C   0  0  0  0  0  0  0  0  0  0  0  0
    7.1551   -0.5655   -8.9358 C   0  0  0  0  0  0  0  0  0  0  0  0
    5.7941   -0.2661   -9.0734 C   0  0  0  0  0  0  0  0  0  0  0  0
    5.1750    0.6104   -8.1960 C   0  0  0  0  0  0  0  0  0  0  0  0
    3.8099    1.0200   -8.5253 C   0  0  0  0  0  0  0  0  0  0  0  0
    3.0445    0.3581   -9.3363 N   0  0  0  0  0  0  0  0  0  0  0  0
    3.5863   -0.7390   -9.9393 N   0  0  0  0  0  0  0  0  0  0  0  0
    4.9327   -1.0250   -9.9994 C   0  0  0  0  0  0  0  0  0  0  0  0
    5.3933   -1.9265  -10.6926 O   0  0  0  0  0  0  0  0  0  0  0  0
    4.8781   -0.4715   -2.6144 C   0  0  0  0  0  0  0  0  0  0  0  0
    4.1647   -0.6135   -1.4178 C   0  0  0  0  0  0  0  0  0  0  0  0
    3.9148   -0.2137    1.1992 H   0  0  0  0  0  0  0  0  0  0  0  0
    1.1647   -0.0211    2.3893 H   0  0  0  0  0  0  0  0  0  0  0  0
    2.6746    0.5564    3.0968 H   0  0  0  0  0  0  0  0  0  0  0  0
    3.4250   -0.8254    4.9135 H   0  0  0  0  0  0  0  0  0  0  0  0
    3.6247   -3.0837    5.9286 H   0  0  0  0  0  0  0  0  0  0  0  0
    1.7237   -4.8756    2.7461 H   0  0  0  0  0  0  0  0  0  0  0  0
    1.4186   -2.6990    1.5749 H   0  0  0  0  0  0  0  0  0  0  0  0
    1.6590    1.6028   -2.0527 H   0  0  0  0  0  0  0  0  0  0  0  0
    2.9059    1.8608   -4.1332 H   0  0  0  0  0  0  0  0  0  0  0  0
    5.9475   -0.1895   -4.8665 H   0  0  0  0  0  0  0  0  0  0  0  0
    7.7503    1.0294   -5.9978 H   0  0  0  0  0  0  0  0  0  0  0  0
    8.9365   -0.2577   -7.7575 H   0  0  0  0  0  0  0  0  0  0  0  0
    7.6401   -1.2442   -9.6360 H   0  0  0  0  0  0  0  0  0  0  0  0
    3.4189    1.9585   -8.0991 H   0  0  0  0  0  0  0  0  0  0  0  0
    2.9531   -1.2975  -10.5039 H   0  0  0  0  0  0  0  0  0  0  0  0
    5.7645   -1.0837   -2.7642 H   0  0  0  0  0  0  0  0  0  0  0  0
    4.5004   -1.3401   -0.6829 H   0  0  0  0  0  0  0  0  0  0  0  0
  1  2  2  0  0  0  0
  2  3  1  0  0  0  0
  2 11  1  0  0  0  0
  3  4  1  0  0  0  0
  3 31  1  0  0  0  0
  4  5  1  0  0  0  0
  4 32  1  0  0  0  0
  4 33  1  0  0  0  0
  5  6  2  0  0  0  0
  5 10  1  0  0  0  0
  6  7  1  0  0  0  0
  6 34  1  0  0  0  0
  7  8  2  0  0  0  0
  7 35  1  0  0  0  0
  8  9  1  0  0  0  0
  9 10  2  0  0  0  0
  9 36  1  0  0  0  0
 10 37  1  0  0  0  0
 11 12  2  0  0  0  0
 11 30  1  0  0  0  0
 12 13  1  0  0  0  0
 12 38  1  0  0  0  0
 13 14  2  0  0  0  0
 13 39  1  0  0  0  0
 14 15  1  0  0  0  0
 14 29  1  0  0  0  0
 15 16  1  0  0  0  0
 15 40  1  0  0  0  0
 16 17  2  0  0  0  0
 16 18  1  0  0  0  0
 18 19  2  0  0  0  0
 18 23  1  0  0  0  0
 19 20  1  0  0  0  0
 19 41  1  0  0  0  0
 20 21  2  0  0  0  0
 20 42  1  0  0  0  0
 21 22  1  0  0  0  0
 21 43  1  0  0  0  0
 22 23  2  0  0  0  0
 22 27  1  0  0  0  0
 23 24  1  0  0  0  0
 24 25  2  0  0  0  0
 24 44  1  0  0  0  0
 25 26  1  0  0  0  0
 26 27  1  0  0  0  0
 26 45  1  0  0  0  0
 27 28  2  0  0  0  0
 29 30  2  0  0  0  0
 29 46  1  0  0  0  0
 30 47  1  0  0  0  0
M  END
$$$$
