
 OpenBabel01122422533D

 45 48  0  0  1  0  0  0  0  0999 V2000
    1.3359    0.1969    1.1425 O   0  0  0  0  0  0  0  0  0  0  0  0
    2.2021    0.1345    0.2715 C   0  0  0  0  0  0  0  0  0  0  0  0
    2.5767    1.1776   -0.5745 N   0  0  0  0  0  0  0  0  0  0  0  0
    2.0132    2.4832   -0.5994 C   0  0  0  0  0  0  0  0  0  0  0  0
    0.9814    2.8922    0.2517 C   0  0  0  0  0  0  0  0  0  0  0  0
    0.4093    4.1596    0.1410 C   0  0  0  0  0  0  0  0  0  0  0  0
    0.8677    5.0390   -0.8215 C   0  0  0  0  0  0  0  0  0  0  0  0
    0.2686    6.2375   -0.9165 F   0  0  0  0  0  0  0  0  0  0  0  0
    1.9155    4.6796   -1.6764 C   0  0  0  0  0  0  0  0  0  0  0  0
    2.3574    5.5569   -2.7329 C   0  0  0  0  0  0  0  0  0  0  0  0
    1.5762    6.4753   -3.3925 C   0  0  0  0  0  0  0  0  0  0  0  0
    2.3659    6.9337   -4.4141 N   0  0  0  0  0  0  0  0  0  0  0  0
    2.0055    7.8056   -5.4630 C   0  0  0  0  0  0  0  0  0  0  0  0
    0.7337    8.3691   -5.5167 C   0  0  0  0  0  0  0  0  0  0  0  0
    0.4322    9.1931   -6.5893 C   0  0  0  0  0  0  0  0  0  0  0  0
    1.3005    9.4685   -7.5848 N   0  0  0  0  0  0  0  0  0  0  0  0
    2.5253    8.9074   -7.5070 C   0  0  0  0  0  0  0  0  0  0  0  0
    2.9291    8.0846   -6.4727 C   0  0  0  0  0  0  0  0  0  0  0  0
    3.5945    6.3672   -4.3288 N   0  0  0  0  0  0  0  0  0  0  0  0
    3.5935    5.5183   -3.3096 N   0  0  0  0  0  0  0  0  0  0  0  0
    2.4926    3.4011   -1.5449 C   0  0  0  0  0  0  0  0  0  0  0  0
    2.9763   -1.1983    0.0645 C   0  0  1  0  0  0  0  0  0  0  0  0
    2.9718   -1.9614    1.2710 O   0  0  0  0  0  0  0  0  0  0  0  0
    2.4165   -2.0891   -1.0304 C   0  0  0  0  0  0  0  0  0  0  0  0
    3.2675   -2.9770   -1.7135 C   0  0  0  0  0  0  0  0  0  0  0  0
    2.7865   -3.7744   -2.7574 C   0  0  0  0  0  0  0  0  0  0  0  0
    1.4368   -3.7371   -3.0987 C   0  0  0  0  0  0  0  0  0  0  0  0
    0.5662   -2.9243   -2.3781 C   0  0  0  0  0  0  0  0  0  0  0  0
    1.0500   -2.1069   -1.3526 C   0  0  0  0  0  0  0  0  0  0  0  0
    3.2936    0.9834   -1.2644 H   0  0  0  0  0  0  0  0  0  0  0  0
    0.5764    2.2416    1.0182 H   0  0  0  0  0  0  0  0  0  0  0  0
   -0.4094    4.4511    0.7946 H   0  0  0  0  0  0  0  0  0  0  0  0
    0.5476    6.7683   -3.2593 H   0  0  0  0  0  0  0  0  0  0  0  0
   -0.0362    8.1964   -4.7699 H   0  0  0  0  0  0  0  0  0  0  0  0
   -0.5401    9.6666   -6.6753 H   0  0  0  0  0  0  0  0  0  0  0  0
    3.1961    9.1402   -8.3289 H   0  0  0  0  0  0  0  0  0  0  0  0
    3.9324    7.6694   -6.4740 H   0  0  0  0  0  0  0  0  0  0  0  0
    3.3055    3.1241   -2.2191 H   0  0  0  0  0  0  0  0  0  0  0  0
    4.0196   -0.9472   -0.1546 H   0  0  0  0  0  0  0  0  0  0  0  0
    2.0410   -1.9742    1.5684 H   0  0  0  0  0  0  0  0  0  0  0  0
    4.3155   -3.0645   -1.4300 H   0  0  0  0  0  0  0  0  0  0  0  0
    3.4627   -4.4299   -3.3008 H   0  0  0  0  0  0  0  0  0  0  0  0
    1.0615   -4.3538   -3.9108 H   0  0  0  0  0  0  0  0  0  0  0  0
   -0.4954   -2.9264   -2.6129 H   0  0  0  0  0  0  0  0  0  0  0  0
    0.3391   -1.4893   -0.8071 H   0  0  0  0  0  0  0  0  0  0  0  0
  1  2  2  0  0  0  0
  2  3  1  0  0  0  0
  2 22  1  0  0  0  0
  3  4  1  0  0  0  0
  3 30  1  0  0  0  0
  4  5  2  0  0  0  0
  4 21  1  0  0  0  0
  5  6  1  0  0  0  0
  5 31  1  0  0  0  0
  6  7  2  0  0  0  0
  6 32  1  0  0  0  0
  7  8  1  0  0  0  0
  7  9  1  0  0  0  0
  9 10  1  0  0  0  0
  9 21  2  0  0  0  0
 10 11  2  0  0  0  0
 10 20  1  0  0  0  0
 11 12  1  0  0  0  0
 11 33  1  0  0  0  0
 12 13  1  0  0  0  0
 12 19  1  0  0  0  0
 13 14  2  0  0  0  0
 13 18  1  0  0  0  0
 14 15  1  0  0  0  0
 14 34  1  0  0  0  0
 15 16  2  0  0  0  0
 15 35  1  0  0  0  0
 16 17  1  0  0  0  0
 17 18  2  0  0  0  0
 17 36  1  0  0  0  0
 18 37  1  0  0  0  0
 19 20  2  0  0  0  0
 21 38  1  0  0  0  0
 22 23  1  0  0  0  0
 22 24  1  0  0  0  0
 22 39  1  6  0  0  0
 23 40  1  0  0  0  0
 24 25  2  0  0  0  0
 24 29  1  0  0  0  0
 25 26  1  0  0  0  0
 25 41  1  0  0  0  0
 26 27  2  0  0  0  0
 26 42  1  0  0  0  0
 27 28  1  0  0  0  0
 27 43  1  0  0  0  0
 28 29  2  0  0  0  0
 28 44  1  0  0  0  0
 29 45  1  0  0  0  0
M  END
$$$$
