
 OpenBabel01122422533D

 46 49  0  0  1  0  0  0  0  0999 V2000
    1.5749   -0.8945    0.4993 N   0  0  0  0  0  0  0  0  0  0  0  0
    2.4743   -0.0807   -0.1404 C   0  0  0  0  0  0  0  0  0  0  0  0
    2.6474   -0.2105   -1.3504 O   0  0  0  0  0  0  0  0  0  0  0  0
    3.2707    0.9165    0.7464 C   0  0  3  0  0  0  0  0  0  0  0  0
    2.8169    0.9181    2.1464 N   0  0  0  0  0  0  0  0  0  0  0  0
    1.7816    1.7354    2.5048 C   0  0  0  0  0  0  0  0  0  0  0  0
    1.2187    2.4244    1.6633 O   0  0  0  0  0  0  0  0  0  0  0  0
    1.4210    1.6452    3.8308 N   0  0  0  0  0  0  0  0  0  0  0  0
    0.2927    2.3174    4.3766 C   0  0  0  0  0  0  0  0  0  0  0  0
   -0.7377    2.8352    3.5986 C   0  0  0  0  0  0  0  0  0  0  0  0
   -1.7855    3.5426    4.0750 N   0  0  0  0  0  0  0  0  0  0  0  0
   -1.8435    3.7878    5.3928 C   0  0  0  0  0  0  0  0  0  0  0  0
   -2.8638    4.5869    5.9082 C   0  0  0  0  0  0  0  0  0  0  0  0
   -3.7822    5.1142    5.0834 F   0  0  0  0  0  0  0  0  0  0  0  0
   -2.9600    4.8849    7.2652 C   0  0  0  0  0  0  0  0  0  0  0  0
   -2.0264    4.3630    8.1467 C   0  0  0  0  0  0  0  0  0  0  0  0
   -0.9964    3.5501    7.6643 C   0  0  0  0  0  0  0  0  0  0  0  0
   -0.8827    3.2668    6.2859 C   0  0  0  0  0  0  0  0  0  0  0  0
    0.1805    2.4983    5.7558 C   0  0  0  0  0  0  0  0  0  0  0  0
    4.7761    0.7299    0.6944 C   0  0  0  0  0  0  0  0  0  0  0  0
    5.6027    1.8467    0.8914 C   0  0  0  0  0  0  0  0  0  0  0  0
    6.9915    1.7134    0.9098 C   0  0  0  0  0  0  0  0  0  0  0  0
    7.5899    0.4587    0.7344 C   0  0  0  0  0  0  0  0  0  0  0  0
    8.9843    0.3029    0.7782 C   0  0  0  0  0  0  0  0  0  0  0  0
    9.5662   -0.9523    0.5977 C   0  0  0  0  0  0  0  0  0  0  0  0
    8.7632   -2.0633    0.3575 C   0  0  0  0  0  0  0  0  0  0  0  0
    7.3751   -1.9244    0.3124 C   0  0  0  0  0  0  0  0  0  0  0  0
    6.7725   -0.6723    0.5122 C   0  0  0  0  0  0  0  0  0  0  0  0
    5.3750   -0.5241    0.5020 C   0  0  0  0  0  0  0  0  0  0  0  0
    0.9720   -1.4383   -0.1056 H   0  0  0  0  0  0  0  0  0  0  0  0
    1.1974   -0.5990    1.3894 H   0  0  0  0  0  0  0  0  0  0  0  0
    3.0464    1.8982    0.3073 H   0  0  0  0  0  0  0  0  0  0  0  0
    3.3740    0.4306    2.8303 H   0  0  0  0  0  0  0  0  0  0  0  0
    2.1030    1.2745    4.4761 H   0  0  0  0  0  0  0  0  0  0  0  0
   -0.7849    2.7001    2.5236 H   0  0  0  0  0  0  0  0  0  0  0  0
   -3.7651    5.5286    7.6070 H   0  0  0  0  0  0  0  0  0  0  0  0
   -2.0934    4.5956    9.2074 H   0  0  0  0  0  0  0  0  0  0  0  0
   -0.2658    3.1591    8.3694 H   0  0  0  0  0  0  0  0  0  0  0  0
    0.9310    2.0910    6.4272 H   0  0  0  0  0  0  0  0  0  0  0  0
    5.1660    2.8352    1.0293 H   0  0  0  0  0  0  0  0  0  0  0  0
    7.6035    2.5997    1.0627 H   0  0  0  0  0  0  0  0  0  0  0  0
    9.6280    1.1608    0.9582 H   0  0  0  0  0  0  0  0  0  0  0  0
   10.6467   -1.0605    0.6403 H   0  0  0  0  0  0  0  0  0  0  0  0
    9.2157   -3.0395    0.2051 H   0  0  0  0  0  0  0  0  0  0  0  0
    6.7648   -2.8037    0.1182 H   0  0  0  0  0  0  0  0  0  0  0  0
    4.7530   -1.4014    0.3303 H   0  0  0  0  0  0  0  0  0  0  0  0
  1  2  1  0  0  0  0
  1 30  1  0  0  0  0
  1 31  1  0  0  0  0
  2  3  2  0  0  0  0
  2  4  1  0  0  0  0
  4  5  1  0  0  0  0
  4 20  1  0  0  0  0
  4 32  1  0  0  0  0
  5  6  1  0  0  0  0
  5 33  1  0  0  0  0
  6  7  2  0  0  0  0
  6  8  1  0  0  0  0
  8  9  1  0  0  0  0
  8 34  1  0  0  0  0
  9 10  2  0  0  0  0
  9 19  1  0  0  0  0
 10 11  1  0  0  0  0
 10 35  1  0  0  0  0
 11 12  2  0  0  0  0
 12 13  1  0  0  0  0
 12 18  1  0  0  0  0
 13 14  1  0  0  0  0
 13 15  2  0  0  0  0
 15 16  1  0  0  0  0
 15 36  1  0  0  0  0
 16 17  2  0  0  0  0
 16 37  1  0  0  0  0
 17 18  1  0  0  0  0
 17 38  1  0  0  0  0
 18 19  2  0  0  0  0
 19 39  1  0  0  0  0
 20 21  2  0  0  0  0
 20 29  1  0  0  0  0
 21 22  1  0  0  0  0
 21 40  1  0  0  0  0
 22 23  2  0  0  0  0
 22 41  1  0  0  0  0
 23 24  1  0  0  0  0
 23 28  1  0  0  0  0
 24 25  2  0  0  0  0
 24 42  1  0  0  0  0
 25 26  1  0  0  0  0
 25 43  1  0  0  0  0
 26 27  2  0  0  0  0
 26 44  1  0  0  0  0
 27 28  1  0  0  0  0
 27 45  1  0  0  0  0
 28 29  2  0  0  0  0
 29 46  1  0  0  0  0
M  END
$$$$
