
 OpenBabel01122422533D

 46 49  0  0  0  0  0  0  0  0999 V2000
    1.0191   -0.2968    0.0666 O   0  0  0  0  0  0  0  0  0  0  0  0
    2.2298   -0.1416   -0.0386 C   0  0  0  0  0  0  0  0  0  0  0  0
    2.8833    1.0487   -0.3279 N   0  0  0  0  0  0  0  0  0  0  0  0
    2.2296    2.3039   -0.4309 C   0  0  0  0  0  0  0  0  0  0  0  0
    0.9854    2.5335    0.1598 C   0  0  0  0  0  0  0  0  0  0  0  0
    0.3247    3.7450   -0.0215 C   0  0  0  0  0  0  0  0  0  0  0  0
    0.9095    4.7363   -0.7969 C   0  0  0  0  0  0  0  0  0  0  0  0
    0.1917    5.8555   -0.9892 F   0  0  0  0  0  0  0  0  0  0  0  0
    2.1833    4.5847   -1.3736 C   0  0  0  0  0  0  0  0  0  0  0  0
    2.7900    5.6666   -2.1958 C   0  0  0  0  0  0  0  0  0  0  0  0
    2.5525    7.0268   -1.9126 C   0  0  0  0  0  0  0  0  0  0  0  0
    3.0679    8.0524   -2.7122 C   0  0  0  0  0  0  0  0  0  0  0  0
    3.8613    7.7438   -3.8090 C   0  0  0  0  0  0  0  0  0  0  0  0
    4.1335    6.4112   -4.1062 C   0  0  0  0  0  0  0  0  0  0  0  0
    3.5988    5.3869   -3.3129 C   0  0  0  0  0  0  0  0  0  0  0  0
    2.8391    3.3448   -1.1559 C   0  0  0  0  0  0  0  0  0  0  0  0
    3.1171   -1.3832    0.0277 C   0  0  0  0  0  0  0  0  0  0  0  0
    4.1451   -1.4538   -0.7660 N   0  0  0  0  0  0  0  0  0  0  0  0
    4.8147   -2.6791   -0.8387 N   0  0  0  0  0  0  0  0  0  0  0  0
    5.8601   -2.7163   -1.8253 C   0  0  0  0  0  0  0  0  0  0  0  0
    6.2735   -3.9142   -2.4303 C   0  0  0  0  0  0  0  0  0  0  0  0
    7.2743   -3.9310   -3.4084 C   0  0  0  0  0  0  0  0  0  0  0  0
    7.8933   -2.7474   -3.7921 C   0  0  0  0  0  0  0  0  0  0  0  0
    7.5087   -1.5478   -3.2006 C   0  0  0  0  0  0  0  0  0  0  0  0
    6.4950   -1.5316   -2.2346 C   0  0  0  0  0  0  0  0  0  0  0  0
    4.4155   -3.8148   -0.1196 C   0  0  0  0  0  0  0  0  0  0  0  0
    4.9181   -4.9369   -0.1430 O   0  0  0  0  0  0  0  0  0  0  0  0
    3.3010   -3.6307    0.8294 C   0  0  0  0  0  0  0  0  0  0  0  0
    2.6768   -2.4632    0.9504 C   0  0  0  0  0  0  0  0  0  0  0  0
    1.6801   -2.2444    1.8775 O   0  0  0  0  0  0  0  0  0  0  0  0
    3.8337    0.9614   -0.6724 H   0  0  0  0  0  0  0  0  0  0  0  0
    0.4966    1.7882    0.7817 H   0  0  0  0  0  0  0  0  0  0  0  0
   -0.6519    3.9131    0.4211 H   0  0  0  0  0  0  0  0  0  0  0  0
    1.9425    7.3161   -1.0587 H   0  0  0  0  0  0  0  0  0  0  0  0
    2.8388    9.0883   -2.4769 H   0  0  0  0  0  0  0  0  0  0  0  0
    4.2611    8.5377   -4.4342 H   0  0  0  0  0  0  0  0  0  0  0  0
    4.7515    6.1654   -4.9641 H   0  0  0  0  0  0  0  0  0  0  0  0
    3.8073    4.3603   -3.6041 H   0  0  0  0  0  0  0  0  0  0  0  0
    3.8244    3.1808   -1.5837 H   0  0  0  0  0  0  0  0  0  0  0  0
    5.8055   -4.8650   -2.1945 H   0  0  0  0  0  0  0  0  0  0  0  0
    7.5579   -4.8730   -3.8707 H   0  0  0  0  0  0  0  0  0  0  0  0
    8.6709   -2.7624   -4.5511 H   0  0  0  0  0  0  0  0  0  0  0  0
    7.9981   -0.6219   -3.4899 H   0  0  0  0  0  0  0  0  0  0  0  0
    6.2302   -0.5804   -1.7819 H   0  0  0  0  0  0  0  0  0  0  0  0
    3.0534   -4.4969    1.4295 H   0  0  0  0  0  0  0  0  0  0  0  0
    1.4142   -3.0904    2.2775 H   0  0  0  0  0  0  0  0  0  0  0  0
  1  2  2  0  0  0  0
  2  3  1  0  0  0  0
  2 17  1  0  0  0  0
  3  4  1  0  0  0  0
  3 31  1  0  0  0  0
  4  5  2  0  0  0  0
  4 16  1  0  0  0  0
  5  6  1  0  0  0  0
  5 32  1  0  0  0  0
  6  7  2  0  0  0  0
  6 33  1  0  0  0  0
  7  8  1  0  0  0  0
  7  9  1  0  0  0  0
  9 10  1  0  0  0  0
  9 16  2  0  0  0  0
 10 11  2  0  0  0  0
 10 15  1  0  0  0  0
 11 12  1  0  0  0  0
 11 34  1  0  0  0  0
 12 13  2  0  0  0  0
 12 35  1  0  0  0  0
 13 14  1  0  0  0  0
 13 36  1  0  0  0  0
 14 15  2  0  0  0  0
 14 37  1  0  0  0  0
 15 38  1  0  0  0  0
 16 39  1  0  0  0  0
 17 18  2  0  0  0  0
 17 29  1  0  0  0  0
 18 19  1  0  0  0  0
 19 20  1  0  0  0  0
 19 26  1  0  0  0  0
 20 21  2  0  0  0  0
 20 25  1  0  0  0  0
 21 22  1  0  0  0  0
 21 40  1  0  0  0  0
 22 23  2  0  0  0  0
 22 41  1  0  0  0  0
 23 24  1  0  0  0  0
 23 42  1  0  0  0  0
 24 25  2  0  0  0  0
 24 43  1  0  0  0  0
 25 44  1  0  0  0  0
 26 27  2  0  0  0  0
 26 28  1  0  0  0  0
 28 29  2  0  0  0  0
 28 45  1  0  0  0  0
 29 30  1  0  0  0  0
 30 46  1  0  0  0  0
M  END
$$$$
