
 OpenBabel01122422533D

 43 46  0  0  0  0  0  0  0  0999 V2000
   -2.5269   -0.9965   -0.0601 N   0  0  0  0  0  0  0  0  0  0  0  0
   -1.5027   -0.5353    0.2264 C   0  0  0  0  0  0  0  0  0  0  0  0
   -0.2331   -0.0010    0.6399 C   0  0  0  0  0  0  0  0  0  0  0  0
    0.6301   -0.8815    1.3166 C   0  0  0  0  0  0  0  0  0  0  0  0
    1.9172   -0.4862    1.6815 C   0  0  0  0  0  0  0  0  0  0  0  0
    2.3574    0.7976    1.3774 C   0  0  0  0  0  0  0  0  0  0  0  0
    1.4960    1.6931    0.7439 C   0  0  0  0  0  0  0  0  0  0  0  0
    0.1882    1.3177    0.3989 C   0  0  0  0  0  0  0  0  0  0  0  0
   -0.5003    2.3297   -0.2334 O   0  0  0  0  0  0  0  0  0  0  0  0
   -1.8531    2.4846   -0.0798 C   0  0  0  0  0  0  0  0  0  0  0  0
   -2.5124    3.0292   -1.1802 C   0  0  0  0  0  0  0  0  0  0  0  0
   -3.9043    3.1227   -1.1887 C   0  0  0  0  0  0  0  0  0  0  0  0
   -4.6504    2.6530   -0.1055 C   0  0  0  0  0  0  0  0  0  0  0  0
   -6.0571    2.5829   -0.1232 N   0  0  0  0  0  0  0  0  0  0  0  0
   -6.8910    3.2728   -0.9899 C   0  0  0  0  0  0  0  0  0  0  0  0
   -6.5421    4.1594   -1.7581 O   0  0  0  0  0  0  0  0  0  0  0  0
   -8.3364    2.9237   -0.9243 C   0  0  0  0  0  0  0  0  0  0  0  0
   -8.8973    2.5905    0.3244 C   0  0  0  0  0  0  0  0  0  0  0  0
  -10.2452    2.2546    0.4343 C   0  0  0  0  0  0  0  0  0  0  0  0
  -11.0556    2.2756   -0.6951 C   0  0  0  0  0  0  0  0  0  0  0  0
  -10.5143    2.6309   -1.9364 C   0  0  0  0  0  0  0  0  0  0  0  0
   -9.1628    2.9543   -2.0628 C   0  0  0  0  0  0  0  0  0  0  0  0
   -8.7001    3.2752   -3.4233 C   0  0  0  0  0  0  0  0  0  0  0  0
   -9.4616    3.2803   -4.4777 N   0  0  0  0  0  0  0  0  0  0  0  0
  -10.7749    2.9735   -4.3138 N   0  0  0  0  0  0  0  0  0  0  0  0
  -11.3822    2.6483   -3.1275 C   0  0  0  0  0  0  0  0  0  0  0  0
  -12.5753    2.3788   -3.0477 O   0  0  0  0  0  0  0  0  0  0  0  0
   -3.9838    2.1778    1.0270 C   0  0  0  0  0  0  0  0  0  0  0  0
   -2.5916    2.1564    1.0550 C   0  0  0  0  0  0  0  0  0  0  0  0
   -1.9858    1.7427    2.1779 F   0  0  0  0  0  0  0  0  0  0  0  0
    0.3008   -1.8915    1.5576 H   0  0  0  0  0  0  0  0  0  0  0  0
    2.5768   -1.1830    2.1921 H   0  0  0  0  0  0  0  0  0  0  0  0
    3.3667    1.1060    1.6349 H   0  0  0  0  0  0  0  0  0  0  0  0
    1.8465    2.6972    0.5131 H   0  0  0  0  0  0  0  0  0  0  0  0
   -1.9521    3.3516   -2.0546 H   0  0  0  0  0  0  0  0  0  0  0  0
   -4.3801    3.5037   -2.0871 H   0  0  0  0  0  0  0  0  0  0  0  0
   -6.4631    1.9573    0.5601 H   0  0  0  0  0  0  0  0  0  0  0  0
   -8.3052    2.6126    1.2362 H   0  0  0  0  0  0  0  0  0  0  0  0
  -10.6650    1.9850    1.4016 H   0  0  0  0  0  0  0  0  0  0  0  0
  -12.1101    2.0181   -0.6100 H   0  0  0  0  0  0  0  0  0  0  0  0
   -7.6439    3.5199   -3.6004 H   0  0  0  0  0  0  0  0  0  0  0  0
  -11.3512    2.9828   -5.1501 H   0  0  0  0  0  0  0  0  0  0  0  0
   -4.5191    1.8154    1.8982 H   0  0  0  0  0  0  0  0  0  0  0  0
  1  2  3  0  0  0  0
  2  3  1  0  0  0  0
  3  4  2  0  0  0  0
  3  8  1  0  0  0  0
  4  5  1  0  0  0  0
  4 31  1  0  0  0  0
  5  6  2  0  0  0  0
  5 32  1  0  0  0  0
  6  7  1  0  0  0  0
  6 33  1  0  0  0  0
  7  8  2  0  0  0  0
  7 34  1  0  0  0  0
  8  9  1  0  0  0  0
  9 10  1  0  0  0  0
 10 11  2  0  0  0  0
 10 29  1  0  0  0  0
 11 12  1  0  0  0  0
 11 35  1  0  0  0  0
 12 13  2  0  0  0  0
 12 36  1  0  0  0  0
 13 14  1  0  0  0  0
 13 28  1  0  0  0  0
 14 15  1  0  0  0  0
 14 37  1  0  0  0  0
 15 16  2  0  0  0  0
 15 17  1  0  0  0  0
 17 18  2  0  0  0  0
 17 22  1  0  0  0  0
 18 19  1  0  0  0  0
 18 38  1  0  0  0  0
 19 20  2  0  0  0  0
 19 39  1  0  0  0  0
 20 21  1  0  0  0  0
 20 40  1  0  0  0  0
 21 22  2  0  0  0  0
 21 26  1  0  0  0  0
 22 23  1  0  0  0  0
 23 24  2  0  0  0  0
 23 41  1  0  0  0  0
 24 25  1  0  0  0  0
 25 26  1  0  0  0  0
 25 42  1  0  0  0  0
 26 27  2  0  0  0  0
 28 29  2  0  0  0  0
 28 43  1  0  0  0  0
 29 30  1  0  0  0  0
M  END
$$$$
