
 OpenBabel01122422463D

 48 51  0  0  0  0  0  0  0  0999 V2000
    2.2046   -0.0418    1.2771 O   0  0  0  0  0  0  0  0  0  0  0  0
    2.2800   -0.0443    0.0549 C   0  0  0  0  0  0  0  0  0  0  0  0
    1.5857    0.8776   -0.6961 N   0  0  0  0  0  0  0  0  0  0  0  0
    0.7899    1.9173   -0.0823 C   0  0  0  0  0  0  0  0  0  0  0  0
   -0.6731    1.7813   -0.3888 C   0  0  0  0  0  0  0  0  0  0  0  0
   -1.3922    0.6261   -0.0650 C   0  0  0  0  0  0  0  0  0  0  0  0
   -2.7601    0.5838   -0.3165 C   0  0  0  0  0  0  0  0  0  0  0  0
   -3.5136   -0.5099   -0.0171 O   0  0  0  0  0  0  0  0  0  0  0  0
   -3.3689    1.6944   -0.8777 C   0  0  0  0  0  0  0  0  0  0  0  0
   -2.7076    2.8284   -1.2037 N   0  0  0  0  0  0  0  0  0  0  0  0
   -1.3797    2.8442   -0.9486 C   0  0  0  0  0  0  0  0  0  0  0  0
    3.0935   -1.0560   -0.7091 C   0  0  0  0  0  0  0  0  0  0  0  0
    4.1659   -1.6763   -0.1554 C   0  0  0  0  0  0  0  0  0  0  0  0
    4.6564   -1.3379    1.1990 C   0  0  0  0  0  0  0  0  0  0  0  0
    4.1073   -1.9787    2.3233 C   0  0  0  0  0  0  0  0  0  0  0  0
    4.6868   -1.8214    3.5825 C   0  0  0  0  0  0  0  0  0  0  0  0
    5.7783   -0.9717    3.7410 C   0  0  0  0  0  0  0  0  0  0  0  0
    6.2781   -0.2647    2.6465 C   0  0  0  0  0  0  0  0  0  0  0  0
    5.7238   -0.4477    1.3759 C   0  0  0  0  0  0  0  0  0  0  0  0
    4.8790   -2.7128   -1.0159 C   0  0  0  0  0  0  0  0  0  0  0  0
    6.0772   -3.4777   -0.5013 C   0  0  0  0  0  0  0  0  0  0  0  0
    6.2222   -3.8961    0.8243 C   0  0  0  0  0  0  0  0  0  0  0  0
    7.3759   -4.5498    1.2674 C   0  0  0  0  0  0  0  0  0  0  0  0
    8.3623   -4.8950    0.3614 C   0  0  0  0  0  0  0  0  0  0  0  0
    8.1969   -4.5830   -0.9839 C   0  0  0  0  0  0  0  0  0  0  0  0
    7.0718   -3.8644   -1.4121 C   0  0  0  0  0  0  0  0  0  0  0  0
    4.5188   -2.9873   -2.2383 N   0  0  0  0  0  0  0  0  0  0  0  0
    3.4603   -2.3310   -2.7497 N   0  0  0  0  0  0  0  0  0  0  0  0
    2.7117   -1.3904   -2.1083 C   0  0  0  0  0  0  0  0  0  0  0  0
    1.7742   -0.8373   -2.6805 O   0  0  0  0  0  0  0  0  0  0  0  0
    1.5194    0.7453   -1.7046 H   0  0  0  0  0  0  0  0  0  0  0  0
    1.1794    2.8687   -0.4591 H   0  0  0  0  0  0  0  0  0  0  0  0
    0.9215    1.9278    1.0097 H   0  0  0  0  0  0  0  0  0  0  0  0
   -0.8830   -0.2186    0.3894 H   0  0  0  0  0  0  0  0  0  0  0  0
   -2.9324   -1.1951    0.3527 H   0  0  0  0  0  0  0  0  0  0  0  0
   -4.4354    1.7021   -1.0802 H   0  0  0  0  0  0  0  0  0  0  0  0
   -0.8853    3.7764   -1.2098 H   0  0  0  0  0  0  0  0  0  0  0  0
    3.2672   -2.6608    2.2081 H   0  0  0  0  0  0  0  0  0  0  0  0
    4.3005   -2.3813    4.4301 H   0  0  0  0  0  0  0  0  0  0  0  0
    6.2388   -0.8588    4.7193 H   0  0  0  0  0  0  0  0  0  0  0  0
    7.1162    0.4147    2.7816 H   0  0  0  0  0  0  0  0  0  0  0  0
    6.1490    0.0896    0.5316 H   0  0  0  0  0  0  0  0  0  0  0  0
    5.4415   -3.7629    1.5524 H   0  0  0  0  0  0  0  0  0  0  0  0
    7.4783   -4.7942    2.3219 H   0  0  0  0  0  0  0  0  0  0  0  0
    9.2444   -5.4346    0.6990 H   0  0  0  0  0  0  0  0  0  0  0  0
    8.9439   -4.9024   -1.7086 H   0  0  0  0  0  0  0  0  0  0  0  0
    6.9725   -3.6315   -2.4688 H   0  0  0  0  0  0  0  0  0  0  0  0
    3.1984   -2.5651   -3.7046 H   0  0  0  0  0  0  0  0  0  0  0  0
  1  2  2  0  0  0  0
  2  3  1  0  0  0  0
  2 12  1  0  0  0  0
  3  4  1  0  0  0  0
  3 31  1  0  0  0  0
  4  5  1  0  0  0  0
  4 32  1  0  0  0  0
  4 33  1  0  0  0  0
  5  6  2  0  0  0  0
  5 11  1  0  0  0  0
  6  7  1  0  0  0  0
  6 34  1  0  0  0  0
  7  8  1  0  0  0  0
  7  9  2  0  0  0  0
  8 35  1  0  0  0  0
  9 10  1  0  0  0  0
  9 36  1  0  0  0  0
 10 11  2  0  0  0  0
 11 37  1  0  0  0  0
 12 13  2  0  0  0  0
 12 29  1  0  0  0  0
 13 14  1  0  0  0  0
 13 20  1  0  0  0  0
 14 15  2  0  0  0  0
 14 19  1  0  0  0  0
 15 16  1  0  0  0  0
 15 38  1  0  0  0  0
 16 17  2  0  0  0  0
 16 39  1  0  0  0  0
 17 18  1  0  0  0  0
 17 40  1  0  0  0  0
 18 19  2  0  0  0  0
 18 41  1  0  0  0  0
 19 42  1  0  0  0  0
 20 21  1  0  0  0  0
 20 27  2  0  0  0  0
 21 22  2  0  0  0  0
 21 26  1  0  0  0  0
 22 23  1  0  0  0  0
 22 43  1  0  0  0  0
 23 24  2  0  0  0  0
 23 44  1  0  0  0  0
 24 25  1  0  0  0  0
 24 45  1  0  0  0  0
 25 26  2  0  0  0  0
 25 46  1  0  0  0  0
 26 47  1  0  0  0  0
 27 28  1  0  0  0  0
 28 29  1  0  0  0  0
 28 48  1  0  0  0  0
 29 30  2  0  0  0  0
M  END
$$$$
