
 OpenBabel01122422533D

 51 54  0  0  0  0  0  0  0  0999 V2000
    1.7018   -2.6002    0.9735 N   0  0  0  0  0  0  0  0  0  0  0  0
    3.0343   -2.3098    0.8898 C   0  0  0  0  0  0  0  0  0  0  0  0
    3.8474   -3.2098    0.7173 O   0  0  0  0  0  0  0  0  0  0  0  0
    3.3815   -0.8267    1.0505 C   0  0  0  0  0  0  0  0  0  0  0  0
    4.8176   -0.5262    1.0119 N   0  0  0  0  0  0  0  0  0  0  0  0
    5.3040    0.1431   -0.1893 C   0  0  0  0  0  0  0  0  0  0  0  0
    5.8170   -0.7729   -1.2817 C   0  0  0  0  0  0  0  0  0  0  0  0
    4.9722   -1.3795   -2.2143 C   0  0  0  0  0  0  0  0  0  0  0  0
    5.5013   -2.1150   -3.2913 C   0  0  0  0  0  0  0  0  0  0  0  0
    6.8881   -2.2614   -3.4779 C   0  0  0  0  0  0  0  0  0  0  0  0
    7.4714   -2.9595   -4.6552 C   0  0  0  0  0  0  0  0  0  0  0  0
    6.8468   -2.9454   -5.9168 C   0  0  0  0  0  0  0  0  0  0  0  0
    7.4311   -3.5620   -7.0335 C   0  0  0  0  0  0  0  0  0  0  0  0
    8.6633   -4.2019   -6.9216 C   0  0  0  0  0  0  0  0  0  0  0  0
    9.3011   -4.2332   -5.6896 C   0  0  0  0  0  0  0  0  0  0  0  0
    8.7076   -3.6310   -4.5734 C   0  0  0  0  0  0  0  0  0  0  0  0
    7.7145   -1.6799   -2.5012 C   0  0  0  0  0  0  0  0  0  0  0  0
    7.1931   -0.9660   -1.4164 C   0  0  0  0  0  0  0  0  0  0  0  0
    5.7381   -0.8458    2.0160 C   0  0  0  0  0  0  0  0  0  0  0  0
    6.9306   -0.5403    1.9493 O   0  0  0  0  0  0  0  0  0  0  0  0
    5.2559   -1.6884    3.1692 C   0  0  0  0  0  0  0  0  0  0  0  0
    6.0164   -2.7231    3.5568 C   0  0  0  0  0  0  0  0  0  0  0  0
    5.3407   -3.8183    4.2449 C   0  0  0  0  0  0  0  0  0  0  0  0
    5.9546   -5.0700    4.3535 C   0  0  0  0  0  0  0  0  0  0  0  0
    5.1969   -6.1931    4.6995 C   0  0  0  0  0  0  0  0  0  0  0  0
    3.8353   -6.0681    4.9766 C   0  0  0  0  0  0  0  0  0  0  0  0
    3.2349   -4.8120    4.9498 C   0  0  0  0  0  0  0  0  0  0  0  0
    3.9897   -3.6931    4.5798 C   0  0  0  0  0  0  0  0  0  0  0  0
    3.3194   -2.3853    4.4469 C   0  0  0  0  0  0  0  0  0  0  0  0
    2.2118   -2.1721    4.9229 O   0  0  0  0  0  0  0  0  0  0  0  0
    3.9711   -1.4538    3.6986 O   0  0  0  0  0  0  0  0  0  0  0  0
    1.4365   -3.5754    0.9100 H   0  0  0  0  0  0  0  0  0  0  0  0
    0.9865   -1.9159    1.1780 H   0  0  0  0  0  0  0  0  0  0  0  0
    2.9551   -0.4363    1.9779 H   0  0  0  0  0  0  0  0  0  0  0  0
    2.8742   -0.2839    0.2447 H   0  0  0  0  0  0  0  0  0  0  0  0
    6.0988    0.8434    0.0953 H   0  0  0  0  0  0  0  0  0  0  0  0
    4.5079    0.7774   -0.5994 H   0  0  0  0  0  0  0  0  0  0  0  0
    3.8925   -1.2754   -2.1345 H   0  0  0  0  0  0  0  0  0  0  0  0
    4.8044   -2.5698   -3.9920 H   0  0  0  0  0  0  0  0  0  0  0  0
    5.8983   -2.4321   -6.0603 H   0  0  0  0  0  0  0  0  0  0  0  0
    6.9227   -3.5296   -7.9979 H   0  0  0  0  0  0  0  0  0  0  0  0
    9.1190   -4.6651   -7.7889 H   0  0  0  0  0  0  0  0  0  0  0  0
   10.2658   -4.7247   -5.5894 H   0  0  0  0  0  0  0  0  0  0  0  0
    9.2375   -3.6949   -3.6258 H   0  0  0  0  0  0  0  0  0  0  0  0
    8.7971   -1.7444   -2.5815 H   0  0  0  0  0  0  0  0  0  0  0  0
    7.8801   -0.5337   -0.6909 H   0  0  0  0  0  0  0  0  0  0  0  0
    7.0177   -2.8804    3.1678 H   0  0  0  0  0  0  0  0  0  0  0  0
    7.0026   -5.1997    4.0921 H   0  0  0  0  0  0  0  0  0  0  0  0
    5.6613   -7.1767    4.7054 H   0  0  0  0  0  0  0  0  0  0  0  0
    3.2380   -6.9511    5.1906 H   0  0  0  0  0  0  0  0  0  0  0  0
    2.1715   -4.7135    5.1575 H   0  0  0  0  0  0  0  0  0  0  0  0
  1  2  1  0  0  0  0
  1 32  1  0  0  0  0
  1 33  1  0  0  0  0
  2  3  2  0  0  0  0
  2  4  1  0  0  0  0
  4  5  1  0  0  0  0
  4 34  1  0  0  0  0
  4 35  1  0  0  0  0
  5  6  1  0  0  0  0
  5 19  1  0  0  0  0
  6  7  1  0  0  0  0
  6 36  1  0  0  0  0
  6 37  1  0  0  0  0
  7  8  2  0  0  0  0
  7 18  1  0  0  0  0
  8  9  1  0  0  0  0
  8 38  1  0  0  0  0
  9 10  2  0  0  0  0
  9 39  1  0  0  0  0
 10 11  1  0  0  0  0
 10 17  1  0  0  0  0
 11 12  2  0  0  0  0
 11 16  1  0  0  0  0
 12 13  1  0  0  0  0
 12 40  1  0  0  0  0
 13 14  2  0  0  0  0
 13 41  1  0  0  0  0
 14 15  1  0  0  0  0
 14 42  1  0  0  0  0
 15 16  2  0  0  0  0
 15 43  1  0  0  0  0
 16 44  1  0  0  0  0
 17 18  2  0  0  0  0
 17 45  1  0  0  0  0
 18 46  1  0  0  0  0
 19 20  2  0  0  0  0
 19 21  1  0  0  0  0
 21 22  2  0  0  0  0
 21 31  1  0  0  0  0
 22 23  1  0  0  0  0
 22 47  1  0  0  0  0
 23 24  2  0  0  0  0
 23 28  1  0  0  0  0
 24 25  1  0  0  0  0
 24 48  1  0  0  0  0
 25 26  2  0  0  0  0
 25 49  1  0  0  0  0
 26 27  1  0  0  0  0
 26 50  1  0  0  0  0
 27 28  2  0  0  0  0
 27 51  1  0  0  0  0
 28 29  1  0  0  0  0
 29 30  2  0  0  0  0
 29 31  1  0  0  0  0
M  END
$$$$
