
 OpenBabel01122422533D

 44 47  0  0  0  0  0  0  0  0999 V2000
    0.9950   -0.0026   -0.2371 O   0  0  0  0  0  0  0  0  0  0  0  0
    2.2181    0.0312   -0.0989 C   0  0  0  0  0  0  0  0  0  0  0  0
    2.9020   -0.0767    1.1005 N   0  0  0  0  0  0  0  0  0  0  0  0
    2.2938   -0.2910    2.3575 C   0  0  0  0  0  0  0  0  0  0  0  0
    0.9859   -0.7648    2.4809 C   0  0  0  0  0  0  0  0  0  0  0  0
    0.3804   -0.9030    3.7306 C   0  0  0  0  0  0  0  0  0  0  0  0
    1.0700   -0.5798    4.9010 C   0  0  0  0  0  0  0  0  0  0  0  0
    0.3868   -0.6762    6.1906 C   0  0  0  0  0  0  0  0  0  0  0  0
   -0.5927   -1.5228    6.5597 C   0  0  0  0  0  0  0  0  0  0  0  0
   -0.9732   -1.2272    7.8435 N   0  0  0  0  0  0  0  0  0  0  0  0
   -0.2146   -0.1482    8.3111 C   0  0  0  0  0  0  0  0  0  0  0  0
   -0.2904    0.3998    9.3929 O   0  0  0  0  0  0  0  0  0  0  0  0
    0.6401    0.1649    7.2482 N   0  0  0  0  0  0  0  0  0  0  0  0
    2.3971   -0.1395    4.7833 C   0  0  0  0  0  0  0  0  0  0  0  0
    3.0104   -0.0111    3.5232 C   0  0  0  0  0  0  0  0  0  0  0  0
    3.0463    0.2497   -1.3201 C   0  0  0  0  0  0  0  0  0  0  0  0
    2.3805    0.5424   -2.5095 C   0  0  0  0  0  0  0  0  0  0  0  0
    3.1198    0.6853   -3.6742 C   0  0  0  0  0  0  0  0  0  0  0  0
    4.4930    0.4680   -3.6363 C   0  0  0  0  0  0  0  0  0  0  0  0
    5.3064    0.5131   -4.7427 O   0  0  0  0  0  0  0  0  0  0  0  0
    4.8218    0.0537   -5.9516 C   0  0  0  0  0  0  0  0  0  0  0  0
    3.9454   -1.0266   -6.0844 C   0  0  0  0  0  0  0  0  0  0  0  0
    3.5003   -1.3961   -7.3491 C   0  0  0  0  0  0  0  0  0  0  0  0
    2.6170   -2.3961   -7.4678 F   0  0  0  0  0  0  0  0  0  0  0  0
    3.9509   -0.7439   -8.4903 C   0  0  0  0  0  0  0  0  0  0  0  0
    4.8664    0.3004   -8.3655 C   0  0  0  0  0  0  0  0  0  0  0  0
    5.3006    0.6985   -7.0964 C   0  0  0  0  0  0  0  0  0  0  0  0
    5.0812    0.2333   -2.3932 C   0  0  0  0  0  0  0  0  0  0  0  0
    4.3965    0.1223   -1.2221 N   0  0  0  0  0  0  0  0  0  0  0  0
    3.8988    0.1203    1.0618 H   0  0  0  0  0  0  0  0  0  0  0  0
    0.3967   -1.0483    1.6147 H   0  0  0  0  0  0  0  0  0  0  0  0
   -0.6515   -1.2459    3.7602 H   0  0  0  0  0  0  0  0  0  0  0  0
   -1.0642   -2.3152    5.9989 H   0  0  0  0  0  0  0  0  0  0  0  0
   -1.6979   -1.6749    8.3835 H   0  0  0  0  0  0  0  0  0  0  0  0
    1.2830    0.9393    7.2640 H   0  0  0  0  0  0  0  0  0  0  0  0
    2.9726    0.1098    5.6715 H   0  0  0  0  0  0  0  0  0  0  0  0
    4.0355    0.3472    3.4727 H   0  0  0  0  0  0  0  0  0  0  0  0
    1.2991    0.6421   -2.5312 H   0  0  0  0  0  0  0  0  0  0  0  0
    2.6045    0.9299   -4.5987 H   0  0  0  0  0  0  0  0  0  0  0  0
    3.5831   -1.5830   -5.2268 H   0  0  0  0  0  0  0  0  0  0  0  0
    3.5921   -1.0575   -9.4652 H   0  0  0  0  0  0  0  0  0  0  0  0
    5.2389    0.8052   -9.2532 H   0  0  0  0  0  0  0  0  0  0  0  0
    6.0102    1.5173   -7.0041 H   0  0  0  0  0  0  0  0  0  0  0  0
    6.1584    0.1092   -2.3118 H   0  0  0  0  0  0  0  0  0  0  0  0
  1  2  2  0  0  0  0
  2  3  1  0  0  0  0
  2 16  1  0  0  0  0
  3  4  1  0  0  0  0
  3 30  1  0  0  0  0
  4  5  2  0  0  0  0
  4 15  1  0  0  0  0
  5  6  1  0  0  0  0
  5 31  1  0  0  0  0
  6  7  2  0  0  0  0
  6 32  1  0  0  0  0
  7  8  1  0  0  0  0
  7 14  1  0  0  0  0
  8  9  2  0  0  0  0
  8 13  1  0  0  0  0
  9 10  1  0  0  0  0
  9 33  1  0  0  0  0
 10 11  1  0  0  0  0
 10 34  1  0  0  0  0
 11 12  2  0  0  0  0
 11 13  1  0  0  0  0
 13 35  1  0  0  0  0
 14 15  2  0  0  0  0
 14 36  1  0  0  0  0
 15 37  1  0  0  0  0
 16 17  2  0  0  0  0
 16 29  1  0  0  0  0
 17 18  1  0  0  0  0
 17 38  1  0  0  0  0
 18 19  2  0  0  0  0
 18 39  1  0  0  0  0
 19 20  1  0  0  0  0
 19 28  1  0  0  0  0
 20 21  1  0  0  0  0
 21 22  2  0  0  0  0
 21 27  1  0  0  0  0
 22 23  1  0  0  0  0
 22 40  1  0  0  0  0
 23 24  1  0  0  0  0
 23 25  2  0  0  0  0
 25 26  1  0  0  0  0
 25 41  1  0  0  0  0
 26 27  2  0  0  0  0
 26 42  1  0  0  0  0
 27 43  1  0  0  0  0
 28 29  2  0  0  0  0
 28 44  1  0  0  0  0
M  END
$$$$
