
 OpenBabel01122422533D

 48 51  0  0  0  0  0  0  0  0999 V2000
    1.1171   -0.3100   -0.3379 O   0  0  0  0  0  0  0  0  0  0  0  0
    2.2092    0.1234    0.0195 C   0  0  0  0  0  0  0  0  0  0  0  0
    2.7339    1.3576   -0.3178 N   0  0  0  0  0  0  0  0  0  0  0  0
    2.1389    2.3279   -1.1419 C   0  0  0  0  0  0  0  0  0  0  0  0
    0.7900    2.3060   -1.4863 C   0  0  0  0  0  0  0  0  0  0  0  0
    0.2621    3.2624   -2.3559 C   0  0  0  0  0  0  0  0  0  0  0  0
    1.0734    4.2625   -2.9016 C   0  0  0  0  0  0  0  0  0  0  0  0
    0.5176    5.2220   -3.8507 C   0  0  0  0  0  0  0  0  0  0  0  0
   -0.7362    5.7037   -3.9235 C   0  0  0  0  0  0  0  0  0  0  0  0
   -0.8088    6.5743   -4.9822 N   0  0  0  0  0  0  0  0  0  0  0  0
    0.4352    6.6443   -5.6117 C   0  0  0  0  0  0  0  0  0  0  0  0
    0.7358    7.2991   -6.5875 O   0  0  0  0  0  0  0  0  0  0  0  0
    1.2513    5.7864   -4.8682 N   0  0  0  0  0  0  0  0  0  0  0  0
    2.4249    4.2981   -2.5314 C   0  0  0  0  0  0  0  0  0  0  0  0
    2.9504    3.3478   -1.6462 C   0  0  0  0  0  0  0  0  0  0  0  0
    3.1014   -0.7782    0.8159 C   0  0  0  0  0  0  0  0  0  0  0  0
    2.6936   -2.1182    0.9580 C   0  0  0  0  0  0  0  0  0  0  0  0
    3.5207   -3.0710    1.5709 C   0  0  0  0  0  0  0  0  0  0  0  0
    3.1145   -4.5281    1.6133 C   0  0  0  0  0  0  0  0  0  0  0  0
    2.3458   -4.9273    2.8491 C   0  0  0  0  0  0  0  0  0  0  0  0
    0.9446   -4.8763    2.8611 C   0  0  0  0  0  0  0  0  0  0  0  0
    0.2326   -5.2112    4.0141 C   0  0  0  0  0  0  0  0  0  0  0  0
    0.9120   -5.6081    5.1639 C   0  0  0  0  0  0  0  0  0  0  0  0
    2.3034   -5.6826    5.1584 C   0  0  0  0  0  0  0  0  0  0  0  0
    3.0178   -5.3420    4.0081 C   0  0  0  0  0  0  0  0  0  0  0  0
    4.7462   -2.6520    2.1029 C   0  0  0  0  0  0  0  0  0  0  0  0
    5.1443   -1.3158    2.0124 C   0  0  0  0  0  0  0  0  0  0  0  0
    4.3264   -0.3848    1.3707 C   0  0  0  0  0  0  0  0  0  0  0  0
    4.7571    0.9144    1.2832 O   0  0  0  0  0  0  0  0  0  0  0  0
    3.6897    1.5300   -0.0155 H   0  0  0  0  0  0  0  0  0  0  0  0
    0.1149    1.5558   -1.0871 H   0  0  0  0  0  0  0  0  0  0  0  0
   -0.7921    3.1900   -2.6113 H   0  0  0  0  0  0  0  0  0  0  0  0
   -1.5888    5.4949   -3.2954 H   0  0  0  0  0  0  0  0  0  0  0  0
   -1.6232    7.0857   -5.2909 H   0  0  0  0  0  0  0  0  0  0  0  0
    2.2116    5.5931   -5.0997 H   0  0  0  0  0  0  0  0  0  0  0  0
    3.0872    5.0653   -2.9243 H   0  0  0  0  0  0  0  0  0  0  0  0
    4.0060    3.3963   -1.3908 H   0  0  0  0  0  0  0  0  0  0  0  0
    1.7308   -2.4296    0.5526 H   0  0  0  0  0  0  0  0  0  0  0  0
    4.0112   -5.1553    1.5205 H   0  0  0  0  0  0  0  0  0  0  0  0
    2.5228   -4.7668    0.7189 H   0  0  0  0  0  0  0  0  0  0  0  0
    0.3977   -4.5725    1.9710 H   0  0  0  0  0  0  0  0  0  0  0  0
   -0.8530   -5.1563    4.0156 H   0  0  0  0  0  0  0  0  0  0  0  0
    0.3568   -5.8579    6.0641 H   0  0  0  0  0  0  0  0  0  0  0  0
    2.8326   -6.0009    6.0527 H   0  0  0  0  0  0  0  0  0  0  0  0
    4.1033   -5.4022    4.0227 H   0  0  0  0  0  0  0  0  0  0  0  0
    5.4091   -3.3718    2.5772 H   0  0  0  0  0  0  0  0  0  0  0  0
    6.1098   -1.0275    2.4177 H   0  0  0  0  0  0  0  0  0  0  0  0
    5.4258    1.0611    1.9768 H   0  0  0  0  0  0  0  0  0  0  0  0
  1  2  2  0  0  0  0
  2  3  1  0  0  0  0
  2 16  1  0  0  0  0
  3  4  1  0  0  0  0
  3 30  1  0  0  0  0
  4  5  2  0  0  0  0
  4 15  1  0  0  0  0
  5  6  1  0  0  0  0
  5 31  1  0  0  0  0
  6  7  2  0  0  0  0
  6 32  1  0  0  0  0
  7  8  1  0  0  0  0
  7 14  1  0  0  0  0
  8  9  2  0  0  0  0
  8 13  1  0  0  0  0
  9 10  1  0  0  0  0
  9 33  1  0  0  0  0
 10 11  1  0  0  0  0
 10 34  1  0  0  0  0
 11 12  2  0  0  0  0
 11 13  1  0  0  0  0
 13 35  1  0  0  0  0
 14 15  2  0  0  0  0
 14 36  1  0  0  0  0
 15 37  1  0  0  0  0
 16 17  2  0  0  0  0
 16 28  1  0  0  0  0
 17 18  1  0  0  0  0
 17 38  1  0  0  0  0
 18 19  1  0  0  0  0
 18 26  2  0  0  0  0
 19 20  1  0  0  0  0
 19 39  1  0  0  0  0
 19 40  1  0  0  0  0
 20 21  2  0  0  0  0
 20 25  1  0  0  0  0
 21 22  1  0  0  0  0
 21 41  1  0  0  0  0
 22 23  2  0  0  0  0
 22 42  1  0  0  0  0
 23 24  1  0  0  0  0
 23 43  1  0  0  0  0
 24 25  2  0  0  0  0
 24 44  1  0  0  0  0
 25 45  1  0  0  0  0
 26 27  1  0  0  0  0
 26 46  1  0  0  0  0
 27 28  2  0  0  0  0
 27 47  1  0  0  0  0
 28 29  1  0  0  0  0
 29 48  1  0  0  0  0
M  END
$$$$
