
 OpenBabel01122422533D

 44 47  0  0  0  0  0  0  0  0999 V2000
    1.1094   -0.1075   -0.0923 O   0  0  0  0  0  0  0  0  0  0  0  0
    2.3299   -0.0786    0.0101 C   0  0  0  0  0  0  0  0  0  0  0  0
    2.9975   -0.6169    1.0863 N   0  0  0  0  0  0  0  0  0  0  0  0
    2.2850   -1.2441    2.1725 C   0  0  0  0  0  0  0  0  0  0  0  0
    3.2316   -1.7760    3.2165 C   0  0  0  0  0  0  0  0  0  0  0  0
    3.7058   -0.9402    4.2371 C   0  0  0  0  0  0  0  0  0  0  0  0
    4.5728   -1.4338    5.2165 C   0  0  0  0  0  0  0  0  0  0  0  0
    4.9386   -2.7807    5.2151 C   0  0  0  0  0  0  0  0  0  0  0  0
    5.7604   -3.3691    6.1490 O   0  0  0  0  0  0  0  0  0  0  0  0
    5.7201   -2.9781    7.4689 C   0  0  0  0  0  0  0  0  0  0  0  0
    4.5960   -2.4683    8.1202 C   0  0  0  0  0  0  0  0  0  0  0  0
    4.6928   -2.0860    9.4544 C   0  0  0  0  0  0  0  0  0  0  0  0
    3.6298   -1.5394   10.0594 F   0  0  0  0  0  0  0  0  0  0  0  0
    5.8721   -2.2557   10.1708 C   0  0  0  0  0  0  0  0  0  0  0  0
    6.9772   -2.8260    9.5435 C   0  0  0  0  0  0  0  0  0  0  0  0
    6.8997   -3.1848    8.1948 C   0  0  0  0  0  0  0  0  0  0  0  0
    4.5220   -3.6021    4.1658 C   0  0  0  0  0  0  0  0  0  0  0  0
    3.6792   -3.1028    3.1680 C   0  0  0  0  0  0  0  0  0  0  0  0
    3.1496    0.5671   -1.0537 C   0  0  0  0  0  0  0  0  0  0  0  0
    4.5457    0.5753   -1.0175 C   0  0  0  0  0  0  0  0  0  0  0  0
    5.2414   -0.0043   -0.0280 F   0  0  0  0  0  0  0  0  0  0  0  0
    5.2154    1.2094   -2.0370 C   0  0  0  0  0  0  0  0  0  0  0  0
    4.5433    1.8301   -3.0853 C   0  0  0  0  0  0  0  0  0  0  0  0
    3.1715    1.8421   -3.1673 C   0  0  0  0  0  0  0  0  0  0  0  0
    2.4699    1.2002   -2.1337 C   0  0  0  0  0  0  0  0  0  0  0  0
    5.4945    2.3822   -3.9346 N   0  0  0  0  0  0  0  0  0  0  0  0
    6.7731    2.1126   -3.4199 C   0  0  0  0  0  0  0  0  0  0  0  0
    7.8381    2.4533   -3.9008 O   0  0  0  0  0  0  0  0  0  0  0  0
    6.5827    1.3783   -2.2419 N   0  0  0  0  0  0  0  0  0  0  0  0
    4.0090   -0.5643    1.1473 H   0  0  0  0  0  0  0  0  0  0  0  0
    1.6613   -2.0485    1.7653 H   0  0  0  0  0  0  0  0  0  0  0  0
    1.6028   -0.5079    2.6139 H   0  0  0  0  0  0  0  0  0  0  0  0
    3.3955    0.1019    4.2801 H   0  0  0  0  0  0  0  0  0  0  0  0
    4.9391   -0.7554    5.9825 H   0  0  0  0  0  0  0  0  0  0  0  0
    3.6440   -2.3492    7.6154 H   0  0  0  0  0  0  0  0  0  0  0  0
    5.9173   -1.9521   11.2119 H   0  0  0  0  0  0  0  0  0  0  0  0
    7.8972   -2.9882   10.0992 H   0  0  0  0  0  0  0  0  0  0  0  0
    7.7644   -3.6281    7.7059 H   0  0  0  0  0  0  0  0  0  0  0  0
    4.8486   -4.6385    4.1266 H   0  0  0  0  0  0  0  0  0  0  0  0
    3.3639   -3.7604    2.3603 H   0  0  0  0  0  0  0  0  0  0  0  0
    2.6474    2.3256   -3.9853 H   0  0  0  0  0  0  0  0  0  0  0  0
    1.3808    1.1933   -2.1628 H   0  0  0  0  0  0  0  0  0  0  0  0
    5.3353    2.9049   -4.7806 H   0  0  0  0  0  0  0  0  0  0  0  0
    7.3293    1.0462   -1.6513 H   0  0  0  0  0  0  0  0  0  0  0  0
  1  2  2  0  0  0  0
  2  3  1  0  0  0  0
  2 19  1  0  0  0  0
  3  4  1  0  0  0  0
  3 30  1  0  0  0  0
  4  5  1  0  0  0  0
  4 31  1  0  0  0  0
  4 32  1  0  0  0  0
  5  6  2  0  0  0  0
  5 18  1  0  0  0  0
  6  7  1  0  0  0  0
  6 33  1  0  0  0  0
  7  8  2  0  0  0  0
  7 34  1  0  0  0  0
  8  9  1  0  0  0  0
  8 17  1  0  0  0  0
  9 10  1  0  0  0  0
 10 11  2  0  0  0  0
 10 16  1  0  0  0  0
 11 12  1  0  0  0  0
 11 35  1  0  0  0  0
 12 13  1  0  0  0  0
 12 14  2  0  0  0  0
 14 15  1  0  0  0  0
 14 36  1  0  0  0  0
 15 16  2  0  0  0  0
 15 37  1  0  0  0  0
 16 38  1  0  0  0  0
 17 18  2  0  0  0  0
 17 39  1  0  0  0  0
 18 40  1  0  0  0  0
 19 20  2  0  0  0  0
 19 25  1  0  0  0  0
 20 21  1  0  0  0  0
 20 22  1  0  0  0  0
 22 23  2  0  0  0  0
 22 29  1  0  0  0  0
 23 24  1  0  0  0  0
 23 26  1  0  0  0  0
 24 25  2  0  0  0  0
 24 41  1  0  0  0  0
 25 42  1  0  0  0  0
 26 27  1  0  0  0  0
 26 43  1  0  0  0  0
 27 28  2  0  0  0  0
 27 29  1  0  0  0  0
 29 44  1  0  0  0  0
M  END
$$$$
