
 OpenBabel01122422533D

 44 47  0  0  1  0  0  0  0  0999 V2000
    1.2549   -1.2045    0.5270 O   0  0  0  0  0  0  0  0  0  0  0  0
    2.4493   -1.2013    0.2531 C   0  0  0  0  0  0  0  0  0  0  0  0
    2.9396   -1.6404   -0.9304 N   0  0  0  0  0  0  0  0  0  0  0  0
    2.1266   -2.2926   -1.9210 C   0  0  3  0  0  0  0  0  0  0  0  0
    1.3990   -1.2915   -2.8032 C   0  0  0  0  0  0  0  0  0  0  0  0
    2.1079   -0.3055   -3.5101 C   0  0  0  0  0  0  0  0  0  0  0  0
    1.4499    0.5532   -4.3888 C   0  0  0  0  0  0  0  0  0  0  0  0
    0.0739    0.4380   -4.5796 C   0  0  0  0  0  0  0  0  0  0  0  0
   -0.6624   -0.5253   -3.8764 C   0  0  0  0  0  0  0  0  0  0  0  0
   -2.1485   -0.6777   -4.0988 C   0  0  0  0  0  0  0  0  0  0  0  0
   -2.6481    0.1637   -5.0466 F   0  0  0  0  0  0  0  0  0  0  0  0
   -2.4734   -1.9357   -4.5142 F   0  0  0  0  0  0  0  0  0  0  0  0
   -2.8798   -0.4556   -2.9742 F   0  0  0  0  0  0  0  0  0  0  0  0
    0.0073   -1.3759   -2.9785 C   0  0  0  0  0  0  0  0  0  0  0  0
    3.0758   -3.1324   -2.7219 C   0  0  0  0  0  0  0  0  0  0  0  0
    4.3886   -3.0307   -2.7664 N   0  0  0  0  0  0  0  0  0  0  0  0
    4.8538   -3.9466   -3.6703 N   0  0  0  0  0  0  0  0  0  0  0  0
    3.8155   -4.5897   -4.1563 C   0  0  0  0  0  0  0  0  0  0  0  0
    2.6695   -4.1121   -3.5771 N   0  0  0  0  0  0  0  0  0  0  0  0
    3.4674   -0.6511    1.1612 C   0  0  0  0  0  0  0  0  0  0  0  0
    3.0650    0.4848    1.7757 C   0  0  0  0  0  0  0  0  0  0  0  0
    3.0605    0.1051    3.2331 C   0  0  0  0  0  0  0  0  0  0  0  0
    2.0787    0.2341    3.9465 O   0  0  0  0  0  0  0  0  0  0  0  0
    4.2585   -0.3909    3.6861 N   0  0  0  0  0  0  0  0  0  0  0  0
    5.2629   -0.7088    2.7649 C   0  0  0  0  0  0  0  0  0  0  0  0
    6.5791   -0.3641    3.0160 C   0  0  0  0  0  0  0  0  0  0  0  0
    7.4795   -0.4923    1.9681 C   0  0  0  0  0  0  0  0  0  0  0  0
    8.6747    0.1036    2.0531 F   0  0  0  0  0  0  0  0  0  0  0  0
    7.1319   -1.1575    0.7931 C   0  0  0  0  0  0  0  0  0  0  0  0
    5.8061   -1.5169    0.5591 C   0  0  0  0  0  0  0  0  0  0  0  0
    4.8513   -1.0783    1.4663 C   0  0  0  0  0  0  0  0  0  0  0  0
    3.9000   -1.4808   -1.1899 H   0  0  0  0  0  0  0  0  0  0  0  0
    1.4061   -2.9353   -1.3977 H   0  0  0  0  0  0  0  0  0  0  0  0
    3.1869   -0.2126   -3.3924 H   0  0  0  0  0  0  0  0  0  0  0  0
    2.0159    1.3021   -4.9375 H   0  0  0  0  0  0  0  0  0  0  0  0
   -0.4202    1.1051   -5.2835 H   0  0  0  0  0  0  0  0  0  0  0  0
   -0.5683   -2.1143   -2.4193 H   0  0  0  0  0  0  0  0  0  0  0  0
    3.8404   -5.3595   -4.9074 H   0  0  0  0  0  0  0  0  0  0  0  0
    1.7170   -4.4285   -3.7912 H   0  0  0  0  0  0  0  0  0  0  0  0
    3.7815    1.3203    1.8229 H   0  0  0  0  0  0  0  0  0  0  0  0
    4.2376   -0.8408    4.5957 H   0  0  0  0  0  0  0  0  0  0  0  0
    6.8563    0.1802    3.9129 H   0  0  0  0  0  0  0  0  0  0  0  0
    7.8773   -1.3076    0.0177 H   0  0  0  0  0  0  0  0  0  0  0  0
    5.5626   -2.0088   -0.3731 H   0  0  0  0  0  0  0  0  0  0  0  0
  1  2  2  0  0  0  0
  2  3  1  0  0  0  0
  2 20  1  0  0  0  0
  3  4  1  0  0  0  0
  3 32  1  0  0  0  0
  4  5  1  0  0  0  0
  4 15  1  0  0  0  0
  4 33  1  0  0  0  0
  5  6  2  0  0  0  0
  5 14  1  0  0  0  0
  6  7  1  0  0  0  0
  6 34  1  0  0  0  0
  7  8  2  0  0  0  0
  7 35  1  0  0  0  0
  8  9  1  0  0  0  0
  8 36  1  0  0  0  0
  9 10  1  0  0  0  0
  9 14  2  0  0  0  0
 10 11  1  0  0  0  0
 10 12  1  0  0  0  0
 10 13  1  0  0  0  0
 14 37  1  0  0  0  0
 15 16  2  0  0  0  0
 15 19  1  0  0  0  0
 16 17  1  0  0  0  0
 17 18  2  0  0  0  0
 18 19  1  0  0  0  0
 18 38  1  0  0  0  0
 19 39  1  0  0  0  0
 20 21  2  0  0  0  0
 20 31  1  0  0  0  0
 21 22  1  0  0  0  0
 21 40  1  0  0  0  0
 22 23  2  0  0  0  0
 22 24  1  0  0  0  0
 24 25  1  0  0  0  0
 24 41  1  0  0  0  0
 25 26  2  0  0  0  0
 25 31  1  0  0  0  0
 26 27  1  0  0  0  0
 26 42  1  0  0  0  0
 27 28  1  0  0  0  0
 27 29  2  0  0  0  0
 29 30  1  0  0  0  0
 29 43  1  0  0  0  0
 30 31  2  0  0  0  0
 30 44  1  0  0  0  0
M  END
$$$$
