
 OpenBabel01122422533D

 50 53  0  0  1  0  0  0  0  0999 V2000
    2.4141   -0.1619   -0.3827 N   0  0  0  0  0  0  0  0  0  0  0  0
    1.1369   -0.0370    0.1635 C   0  0  0  0  0  0  0  0  0  0  0  0
    0.7084    1.2434    0.1463 N   0  0  0  0  0  0  0  0  0  0  0  0
   -0.5247    1.5079    0.6052 C   0  0  0  0  0  0  0  0  0  0  0  0
   -1.3659    0.5302    1.0879 C   0  0  0  0  0  0  0  0  0  0  0  0
   -0.9270   -0.8088    1.1216 C   0  0  0  0  0  0  0  0  0  0  0  0
   -1.8961   -1.8420    1.6458 C   0  0  0  0  0  0  0  0  0  0  0  0
   -3.0723   -1.2662    2.0577 F   0  0  0  0  0  0  0  0  0  0  0  0
   -2.2840   -2.7515    0.7134 F   0  0  0  0  0  0  0  0  0  0  0  0
   -1.4514   -2.5140    2.7393 F   0  0  0  0  0  0  0  0  0  0  0  0
    0.3751   -1.1121    0.6590 C   0  0  0  0  0  0  0  0  0  0  0  0
    0.8975   -2.5249    0.6673 C   0  0  0  0  0  0  0  0  0  0  0  0
    0.1516   -3.4692    0.8940 O   0  0  0  0  0  0  0  0  0  0  0  0
    2.2281   -2.7208    0.3875 N   0  0  0  0  0  0  0  0  0  0  0  0
    2.8651   -4.0336    0.2894 C   0  0  3  0  0  0  0  0  0  0  0  0
    2.4444   -4.8269   -0.9879 C   0  0  0  0  0  0  0  0  0  0  0  0
    2.9476   -4.2638   -2.3071 C   0  0  0  0  0  0  0  0  0  0  0  0
    3.9210   -4.9372   -3.0640 C   0  0  0  0  0  0  0  0  0  0  0  0
    4.4932   -4.3317   -4.1866 C   0  0  0  0  0  0  0  0  0  0  0  0
    4.0753   -3.0609   -4.5646 C   0  0  0  0  0  0  0  0  0  0  0  0
    4.6578   -2.4007   -5.6044 O   0  0  0  0  0  0  0  0  0  0  0  0
    3.0494   -2.4203   -3.8851 C   0  0  0  0  0  0  0  0  0  0  0  0
    2.4751   -3.0303   -2.7713 C   0  0  0  0  0  0  0  0  0  0  0  0
    4.3610   -3.8128    0.4001 C   0  0  0  0  0  0  0  0  0  0  0  0
    4.9642   -2.7756    0.9592 N   0  0  0  0  0  0  0  0  0  0  0  0
    6.3113   -2.9693    0.7627 C   0  0  0  0  0  0  0  0  0  0  0  0
    7.4031   -2.1739    1.1389 C   0  0  0  0  0  0  0  0  0  0  0  0
    8.6931   -2.5879    0.7780 C   0  0  0  0  0  0  0  0  0  0  0  0
    8.8913   -3.7656    0.0526 C   0  0  0  0  0  0  0  0  0  0  0  0
    7.8149   -4.5788   -0.3191 C   0  0  0  0  0  0  0  0  0  0  0  0
    6.5441   -4.1486    0.0684 C   0  0  0  0  0  0  0  0  0  0  0  0
    5.2976   -4.6916   -0.0946 N   0  0  0  0  0  0  0  0  0  0  0  0
    2.7050    0.7800   -0.6427 H   0  0  0  0  0  0  0  0  0  0  0  0
    2.4120   -0.7546   -1.2071 H   0  0  0  0  0  0  0  0  0  0  0  0
   -0.8295    2.5494    0.5597 H   0  0  0  0  0  0  0  0  0  0  0  0
   -2.3572    0.8122    1.4353 H   0  0  0  0  0  0  0  0  0  0  0  0
    2.8579   -1.9156    0.3977 H   0  0  0  0  0  0  0  0  0  0  0  0
    2.5427   -4.6090    1.1667 H   0  0  0  0  0  0  0  0  0  0  0  0
    1.3519   -4.9075   -1.0431 H   0  0  0  0  0  0  0  0  0  0  0  0
    2.8080   -5.8592   -0.8878 H   0  0  0  0  0  0  0  0  0  0  0  0
    4.2588   -5.9311   -2.7804 H   0  0  0  0  0  0  0  0  0  0  0  0
    5.2592   -4.8581   -4.7480 H   0  0  0  0  0  0  0  0  0  0  0  0
    5.5058   -2.8313   -5.8026 H   0  0  0  0  0  0  0  0  0  0  0  0
    2.7128   -1.4402   -4.2094 H   0  0  0  0  0  0  0  0  0  0  0  0
    1.6642   -2.5288   -2.2529 H   0  0  0  0  0  0  0  0  0  0  0  0
    7.2426   -1.2567    1.6937 H   0  0  0  0  0  0  0  0  0  0  0  0
    9.5487   -1.9803    1.0633 H   0  0  0  0  0  0  0  0  0  0  0  0
    9.9022   -4.0584   -0.2250 H   0  0  0  0  0  0  0  0  0  0  0  0
    7.9683   -5.4936   -0.8807 H   0  0  0  0  0  0  0  0  0  0  0  0
    5.1032   -5.5609   -0.5657 H   0  0  0  0  0  0  0  0  0  0  0  0
  1  2  1  0  0  0  0
  1 33  1  0  0  0  0
  1 34  1  0  0  0  0
  2  3  2  0  0  0  0
  2 11  1  0  0  0  0
  3  4  1  0  0  0  0
  4  5  2  0  0  0  0
  4 35  1  0  0  0  0
  5  6  1  0  0  0  0
  5 36  1  0  0  0  0
  6  7  1  0  0  0  0
  6 11  2  0  0  0  0
  7  8  1  0  0  0  0
  7  9  1  0  0  0  0
  7 10  1  0  0  0  0
 11 12  1  0  0  0  0
 12 13  2  0  0  0  0
 12 14  1  0  0  0  0
 14 15  1  0  0  0  0
 14 37  1  0  0  0  0
 15 16  1  0  0  0  0
 15 24  1  0  0  0  0
 15 38  1  0  0  0  0
 16 17  1  0  0  0  0
 16 39  1  0  0  0  0
 16 40  1  0  0  0  0
 17 18  2  0  0  0  0
 17 23  1  0  0  0  0
 18 19  1  0  0  0  0
 18 41  1  0  0  0  0
 19 20  2  0  0  0  0
 19 42  1  0  0  0  0
 20 21  1  0  0  0  0
 20 22  1  0  0  0  0
 21 43  1  0  0  0  0
 22 23  2  0  0  0  0
 22 44  1  0  0  0  0
 23 45  1  0  0  0  0
 24 25  2  0  0  0  0
 24 32  1  0  0  0  0
 25 26  1  0  0  0  0
 26 27  2  0  0  0  0
 26 31  1  0  0  0  0
 27 28  1  0  0  0  0
 27 46  1  0  0  0  0
 28 29  2  0  0  0  0
 28 47  1  0  0  0  0
 29 30  1  0  0  0  0
 29 48  1  0  0  0  0
 30 31  2  0  0  0  0
 30 49  1  0  0  0  0
 31 32  1  0  0  0  0
 32 50  1  0  0  0  0
M  END
$$$$
