
 OpenBabel01122422533D

 54 57  0  0  0  0  0  0  0  0999 V2000
    3.3084    0.8460    2.7131 N   0  0  0  0  0  0  0  0  0  0  0  0
    2.5329   -0.1369    2.1740 C   0  0  0  0  0  0  0  0  0  0  0  0
    1.3728   -0.2785    2.5515 O   0  0  0  0  0  0  0  0  0  0  0  0
    3.1348   -0.9452    1.0194 C   0  0  0  0  0  0  0  0  0  0  0  0
    4.5809   -0.7610    0.7856 N   0  0  0  0  0  0  0  0  0  0  0  0
    4.9283    0.1714   -0.3102 C   0  0  0  0  0  0  0  0  0  0  0  0
    6.1965    0.9893   -0.1611 C   0  0  0  0  0  0  0  0  0  0  0  0
    6.9273    1.3684   -1.3016 C   0  0  0  0  0  0  0  0  0  0  0  0
    8.1147    2.1145   -1.1870 C   0  0  0  0  0  0  0  0  0  0  0  0
    8.6034    2.5092    0.0719 C   0  0  0  0  0  0  0  0  0  0  0  0
    9.8024    3.3594    0.2367 C   0  0  0  0  0  0  0  0  0  0  0  0
   10.0996    4.3879   -0.6760 C   0  0  0  0  0  0  0  0  0  0  0  0
   11.1633    5.2684   -0.4529 C   0  0  0  0  0  0  0  0  0  0  0  0
   11.9480    5.1465    0.6896 C   0  0  0  0  0  0  0  0  0  0  0  0
   11.6890    4.1268    1.5979 C   0  0  0  0  0  0  0  0  0  0  0  0
   10.6382    3.2360    1.3644 C   0  0  0  0  0  0  0  0  0  0  0  0
    7.8571    2.1220    1.1965 C   0  0  0  0  0  0  0  0  0  0  0  0
    6.6711    1.4007    1.0793 C   0  0  0  0  0  0  0  0  0  0  0  0
    5.4102   -1.7832    1.2928 C   0  0  0  0  0  0  0  0  0  0  0  0
    4.9813   -2.6007    2.1106 O   0  0  0  0  0  0  0  0  0  0  0  0
    6.8836   -1.7404    0.9133 C   0  0  0  0  0  0  0  0  0  0  0  0
    7.7025   -2.9604    1.0083 N   0  0  0  0  0  0  0  0  0  0  0  0
    8.8242   -2.7610    1.8397 N   0  0  0  0  0  0  0  0  0  0  0  0
    9.9058   -2.3476    1.2584 C   0  0  0  0  0  0  0  0  0  0  0  0
    9.9832   -2.1318   -0.1834 C   0  0  0  0  0  0  0  0  0  0  0  0
   10.8377   -1.1871   -0.7425 C   0  0  0  0  0  0  0  0  0  0  0  0
   10.7804   -0.9678   -2.1206 C   0  0  0  0  0  0  0  0  0  0  0  0
    9.9231   -1.7285   -2.9261 C   0  0  0  0  0  0  0  0  0  0  0  0
    9.0711   -2.6739   -2.3535 C   0  0  0  0  0  0  0  0  0  0  0  0
    9.0772   -2.8368   -0.9687 C   0  0  0  0  0  0  0  0  0  0  0  0
    7.9395   -3.4928   -0.2791 C   0  0  0  0  0  0  0  0  0  0  0  0
    7.1452   -4.1818   -0.9083 O   0  0  0  0  0  0  0  0  0  0  0  0
    2.9480    1.2941    3.5460 H   0  0  0  0  0  0  0  0  0  0  0  0
    4.3065    0.7928    2.6007 H   0  0  0  0  0  0  0  0  0  0  0  0
    2.5926   -0.6799    0.1045 H   0  0  0  0  0  0  0  0  0  0  0  0
    2.9207   -2.0000    1.2236 H   0  0  0  0  0  0  0  0  0  0  0  0
    4.1112    0.8975   -0.4083 H   0  0  0  0  0  0  0  0  0  0  0  0
    4.9616   -0.4253   -1.2292 H   0  0  0  0  0  0  0  0  0  0  0  0
    6.5847    1.0881   -2.2953 H   0  0  0  0  0  0  0  0  0  0  0  0
    8.6478    2.3790   -2.0932 H   0  0  0  0  0  0  0  0  0  0  0  0
    9.4806    4.5439   -1.5542 H   0  0  0  0  0  0  0  0  0  0  0  0
   11.3607    6.0662   -1.1640 H   0  0  0  0  0  0  0  0  0  0  0  0
   12.7547    5.8504    0.8763 H   0  0  0  0  0  0  0  0  0  0  0  0
   12.2900    4.0321    2.4987 H   0  0  0  0  0  0  0  0  0  0  0  0
   10.4658    2.4519    2.0988 H   0  0  0  0  0  0  0  0  0  0  0  0
    8.1880    2.3908    2.1982 H   0  0  0  0  0  0  0  0  0  0  0  0
    6.1639    1.1269    1.9984 H   0  0  0  0  0  0  0  0  0  0  0  0
    7.3496   -0.9956    1.5652 H   0  0  0  0  0  0  0  0  0  0  0  0
    6.9532   -1.3954   -0.1223 H   0  0  0  0  0  0  0  0  0  0  0  0
   10.7959   -2.1302    1.8701 H   0  0  0  0  0  0  0  0  0  0  0  0
   11.4845   -0.5750   -0.1197 H   0  0  0  0  0  0  0  0  0  0  0  0
   11.3891   -0.1857   -2.5697 H   0  0  0  0  0  0  0  0  0  0  0  0
    9.8845   -1.5496   -3.9986 H   0  0  0  0  0  0  0  0  0  0  0  0
    8.3555   -3.2164   -2.9674 H   0  0  0  0  0  0  0  0  0  0  0  0
  1  2  1  0  0  0  0
  1 33  1  0  0  0  0
  1 34  1  0  0  0  0
  2  3  2  0  0  0  0
  2  4  1  0  0  0  0
  4  5  1  0  0  0  0
  4 35  1  0  0  0  0
  4 36  1  0  0  0  0
  5  6  1  0  0  0  0
  5 19  1  0  0  0  0
  6  7  1  0  0  0  0
  6 37  1  0  0  0  0
  6 38  1  0  0  0  0
  7  8  2  0  0  0  0
  7 18  1  0  0  0  0
  8  9  1  0  0  0  0
  8 39  1  0  0  0  0
  9 10  2  0  0  0  0
  9 40  1  0  0  0  0
 10 11  1  0  0  0  0
 10 17  1  0  0  0  0
 11 12  2  0  0  0  0
 11 16  1  0  0  0  0
 12 13  1  0  0  0  0
 12 41  1  0  0  0  0
 13 14  2  0  0  0  0
 13 42  1  0  0  0  0
 14 15  1  0  0  0  0
 14 43  1  0  0  0  0
 15 16  2  0  0  0  0
 15 44  1  0  0  0  0
 16 45  1  0  0  0  0
 17 18  2  0  0  0  0
 17 46  1  0  0  0  0
 18 47  1  0  0  0  0
 19 20  2  0  0  0  0
 19 21  1  0  0  0  0
 21 22  1  0  0  0  0
 21 48  1  0  0  0  0
 21 49  1  0  0  0  0
 22 23  1  0  0  0  0
 22 31  1  0  0  0  0
 23 24  2  0  0  0  0
 24 25  1  0  0  0  0
 24 50  1  0  0  0  0
 25 26  2  0  0  0  0
 25 30  1  0  0  0  0
 26 27  1  0  0  0  0
 26 51  1  0  0  0  0
 27 28  2  0  0  0  0
 27 52  1  0  0  0  0
 28 29  1  0  0  0  0
 28 53  1  0  0  0  0
 29 30  2  0  0  0  0
 29 54  1  0  0  0  0
 30 31  1  0  0  0  0
 31 32  2  0  0  0  0
M  END
$$$$
