
 OpenBabel01122422533D

 50 53  0  0  0  0  0  0  0  0999 V2000
    1.6429    0.8795   -0.8894 C   0  0  0  0  0  0  0  0  0  0  0  0
    2.3081   -0.0908   -0.0929 O   0  0  0  0  0  0  0  0  0  0  0  0
    3.0184   -1.0497   -0.7576 C   0  0  0  0  0  0  0  0  0  0  0  0
    3.1204   -1.1937   -2.1388 C   0  0  0  0  0  0  0  0  0  0  0  0
    3.8737   -2.2430   -2.6874 C   0  0  0  0  0  0  0  0  0  0  0  0
    4.5567   -3.1634   -1.8739 C   0  0  0  0  0  0  0  0  0  0  0  0
    5.3470   -4.2843   -2.4369 C   0  0  0  0  0  0  0  0  0  0  0  0
    5.9949   -4.1939   -3.6809 C   0  0  0  0  0  0  0  0  0  0  0  0
    6.7509   -5.2570   -4.1841 C   0  0  0  0  0  0  0  0  0  0  0  0
    6.8985   -6.4272   -3.4374 C   0  0  0  0  0  0  0  0  0  0  0  0
    6.2826   -6.5498   -2.1851 C   0  0  0  0  0  0  0  0  0  0  0  0
    6.4365   -7.7964   -1.3376 C   0  0  0  0  0  0  0  0  0  0  0  0
    6.8680   -7.5399    0.0266 O   0  0  0  0  0  0  0  0  0  0  0  0
    8.2001   -7.3123    0.1109 C   0  0  0  0  0  0  0  0  0  0  0  0
    8.9304   -7.1666   -0.8635 O   0  0  0  0  0  0  0  0  0  0  0  0
    8.7893   -7.4299    1.4862 C   0  0  0  0  0  0  0  0  0  0  0  0
   10.1868   -7.5711    1.4500 C   0  0  0  0  0  0  0  0  0  0  0  0
   10.9172   -7.8568    2.5890 C   0  0  0  0  0  0  0  0  0  0  0  0
   10.2852   -7.9376    3.8181 C   0  0  0  0  0  0  0  0  0  0  0  0
   11.1110   -8.2562    4.8923 N   0  0  0  0  0  0  0  0  0  0  0  0
   10.6240   -8.1309    6.0705 C   0  0  0  0  0  0  0  0  0  0  0  0
    9.3368   -7.7533    6.3474 N   0  0  0  0  0  0  0  0  0  0  0  0
    9.0597   -7.4716    7.7443 C   0  0  0  0  0  0  0  0  0  0  0  0
    8.3914   -7.5539    5.3265 C   0  0  0  0  0  0  0  0  0  0  0  0
    7.2184   -7.2662    5.5221 O   0  0  0  0  0  0  0  0  0  0  0  0
    8.9124   -7.6735    3.9203 C   0  0  0  0  0  0  0  0  0  0  0  0
    8.1388   -7.4564    2.7413 C   0  0  0  0  0  0  0  0  0  0  0  0
    5.4917   -5.4909   -1.7222 C   0  0  0  0  0  0  0  0  0  0  0  0
    4.4555   -2.9786   -0.4833 C   0  0  0  0  0  0  0  0  0  0  0  0
    3.6894   -1.9481    0.0659 C   0  0  0  0  0  0  0  0  0  0  0  0
    1.1079    1.5539   -0.2144 H   0  0  0  0  0  0  0  0  0  0  0  0
    0.9029    0.4132   -1.5479 H   0  0  0  0  0  0  0  0  0  0  0  0
    2.3622    1.4764   -1.4595 H   0  0  0  0  0  0  0  0  0  0  0  0
    2.6239   -0.5135   -2.8224 H   0  0  0  0  0  0  0  0  0  0  0  0
    3.9034   -2.3334   -3.7710 H   0  0  0  0  0  0  0  0  0  0  0  0
    5.9367   -3.2830   -4.2725 H   0  0  0  0  0  0  0  0  0  0  0  0
    7.2383   -5.1609   -5.1522 H   0  0  0  0  0  0  0  0  0  0  0  0
    7.5131   -7.2319   -3.8359 H   0  0  0  0  0  0  0  0  0  0  0  0
    7.1156   -8.5183   -1.8140 H   0  0  0  0  0  0  0  0  0  0  0  0
    5.4638   -8.2966   -1.2797 H   0  0  0  0  0  0  0  0  0  0  0  0
   10.7361   -7.4748    0.5146 H   0  0  0  0  0  0  0  0  0  0  0  0
   11.9921   -8.0115    2.5226 H   0  0  0  0  0  0  0  0  0  0  0  0
   11.2605   -8.3334    6.9459 H   0  0  0  0  0  0  0  0  0  0  0  0
    7.9971   -7.4902    7.9808 H   0  0  0  0  0  0  0  0  0  0  0  0
    9.4774   -6.4832    7.9765 H   0  0  0  0  0  0  0  0  0  0  0  0
    9.5958   -8.1911    8.3782 H   0  0  0  0  0  0  0  0  0  0  0  0
    7.0646   -7.2972    2.8136 H   0  0  0  0  0  0  0  0  0  0  0  0
    4.9816   -5.6248   -0.7709 H   0  0  0  0  0  0  0  0  0  0  0  0
    4.9816   -3.6356    0.2052 H   0  0  0  0  0  0  0  0  0  0  0  0
    3.6243   -1.8474    1.1462 H   0  0  0  0  0  0  0  0  0  0  0  0
  1  2  1  0  0  0  0
  1 31  1  0  0  0  0
  1 32  1  0  0  0  0
  1 33  1  0  0  0  0
  2  3  1  0  0  0  0
  3  4  2  0  0  0  0
  3 30  1  0  0  0  0
  4  5  1  0  0  0  0
  4 34  1  0  0  0  0
  5  6  2  0  0  0  0
  5 35  1  0  0  0  0
  6  7  1  0  0  0  0
  6 29  1  0  0  0  0
  7  8  2  0  0  0  0
  7 28  1  0  0  0  0
  8  9  1  0  0  0  0
  8 36  1  0  0  0  0
  9 10  2  0  0  0  0
  9 37  1  0  0  0  0
 10 11  1  0  0  0  0
 10 38  1  0  0  0  0
 11 12  1  0  0  0  0
 11 28  2  0  0  0  0
 12 13  1  0  0  0  0
 12 39  1  0  0  0  0
 12 40  1  0  0  0  0
 13 14  1  0  0  0  0
 14 15  2  0  0  0  0
 14 16  1  0  0  0  0
 16 17  2  0  0  0  0
 16 27  1  0  0  0  0
 17 18  1  0  0  0  0
 17 41  1  0  0  0  0
 18 19  2  0  0  0  0
 18 42  1  0  0  0  0
 19 20  1  0  0  0  0
 19 26  1  0  0  0  0
 20 21  2  0  0  0  0
 21 22  1  0  0  0  0
 21 43  1  0  0  0  0
 22 23  1  0  0  0  0
 22 24  1  0  0  0  0
 23 44  1  0  0  0  0
 23 45  1  0  0  0  0
 23 46  1  0  0  0  0
 24 25  2  0  0  0  0
 24 26  1  0  0  0  0
 26 27  2  0  0  0  0
 27 47  1  0  0  0  0
 28 48  1  0  0  0  0
 29 30  2  0  0  0  0
 29 49  1  0  0  0  0
 30 50  1  0  0  0  0
M  END
$$$$
