
 OpenBabel01122422533D

 46 49  0  0  0  0  0  0  0  0999 V2000
    2.4921   -0.0478   -0.0906 C   0  0  0  0  0  0  0  0  0  0  0  0
    0.9960    0.0104    0.0434 C   0  0  0  0  0  0  0  0  0  0  0  0
    0.3959    1.2691    0.1559 C   0  0  0  0  0  0  0  0  0  0  0  0
   -0.9922    1.4053    0.2193 C   0  0  0  0  0  0  0  0  0  0  0  0
   -1.8342    0.2926    0.1375 C   0  0  0  0  0  0  0  0  0  0  0  0
   -3.2521    0.3801    0.1511 N   0  0  0  0  0  0  0  0  0  0  0  0
   -3.9860    1.5505    0.1669 C   0  0  0  0  0  0  0  0  0  0  0  0
   -3.5102    2.6906    0.1242 O   0  0  0  0  0  0  0  0  0  0  0  0
   -5.4639    1.4758    0.2752 C   0  0  0  0  0  0  0  0  0  0  0  0
   -6.1071    2.6077    0.8268 C   0  0  0  0  0  0  0  0  0  0  0  0
   -7.4948    2.7079    0.8729 C   0  0  0  0  0  0  0  0  0  0  0  0
   -8.2513    1.6398    0.4113 C   0  0  0  0  0  0  0  0  0  0  0  0
   -9.7069    1.6963    0.4203 C   0  0  0  0  0  0  0  0  0  0  0  0
  -10.4666    0.6606    0.2578 N   0  0  0  0  0  0  0  0  0  0  0  0
   -9.8438   -0.5259   -0.0025 N   0  0  0  0  0  0  0  0  0  0  0  0
   -8.5112   -0.6784   -0.3239 C   0  0  0  0  0  0  0  0  0  0  0  0
   -8.0406   -1.7278   -0.7494 O   0  0  0  0  0  0  0  0  0  0  0  0
   -7.6405    0.4794   -0.0545 C   0  0  0  0  0  0  0  0  0  0  0  0
   -6.2445    0.3983   -0.1713 C   0  0  0  0  0  0  0  0  0  0  0  0
   -1.2381   -0.9725    0.0579 C   0  0  0  0  0  0  0  0  0  0  0  0
    0.1695   -1.1286    0.0628 C   0  0  0  0  0  0  0  0  0  0  0  0
    0.7518   -2.5098    0.0685 C   0  0  0  0  0  0  0  0  0  0  0  0
    1.7867   -2.7453   -0.5456 O   0  0  0  0  0  0  0  0  0  0  0  0
    0.0902   -3.6356    0.7943 C   0  0  0  0  0  0  0  0  0  0  0  0
   -0.6863   -3.4376    1.9433 C   0  0  0  0  0  0  0  0  0  0  0  0
   -1.3173   -4.5223    2.5578 C   0  0  0  0  0  0  0  0  0  0  0  0
   -1.1476   -5.8102    2.0504 C   0  0  0  0  0  0  0  0  0  0  0  0
   -0.3379   -6.0191    0.9353 C   0  0  0  0  0  0  0  0  0  0  0  0
    0.2828   -4.9353    0.3111 C   0  0  0  0  0  0  0  0  0  0  0  0
    2.9237    0.9624   -0.1670 H   0  0  0  0  0  0  0  0  0  0  0  0
    2.7794   -0.5641   -1.0119 H   0  0  0  0  0  0  0  0  0  0  0  0
    2.9448   -0.5339    0.7754 H   0  0  0  0  0  0  0  0  0  0  0  0
    1.0048    2.1727    0.1900 H   0  0  0  0  0  0  0  0  0  0  0  0
   -1.3755    2.4154    0.3230 H   0  0  0  0  0  0  0  0  0  0  0  0
   -3.7505   -0.5001    0.1548 H   0  0  0  0  0  0  0  0  0  0  0  0
   -5.5093    3.4325    1.2117 H   0  0  0  0  0  0  0  0  0  0  0  0
   -7.9612    3.5975    1.2872 H   0  0  0  0  0  0  0  0  0  0  0  0
  -10.1860    2.6846    0.5758 H   0  0  0  0  0  0  0  0  0  0  0  0
  -10.4514   -1.3364   -0.1069 H   0  0  0  0  0  0  0  0  0  0  0  0
   -5.7978   -0.4885   -0.6080 H   0  0  0  0  0  0  0  0  0  0  0  0
   -1.8746   -1.8512   -0.0176 H   0  0  0  0  0  0  0  0  0  0  0  0
   -0.8094   -2.4489    2.3794 H   0  0  0  0  0  0  0  0  0  0  0  0
   -1.9366   -4.3658    3.4384 H   0  0  0  0  0  0  0  0  0  0  0  0
   -1.6358   -6.6545    2.5319 H   0  0  0  0  0  0  0  0  0  0  0  0
   -0.1877   -7.0253    0.5506 H   0  0  0  0  0  0  0  0  0  0  0  0
    0.9149   -5.1083   -0.5580 H   0  0  0  0  0  0  0  0  0  0  0  0
  1  2  1  0  0  0  0
  1 30  1  0  0  0  0
  1 31  1  0  0  0  0
  1 32  1  0  0  0  0
  2  3  2  0  0  0  0
  2 21  1  0  0  0  0
  3  4  1  0  0  0  0
  3 33  1  0  0  0  0
  4  5  2  0  0  0  0
  4 34  1  0  0  0  0
  5  6  1  0  0  0  0
  5 20  1  0  0  0  0
  6  7  1  0  0  0  0
  6 35  1  0  0  0  0
  7  8  2  0  0  0  0
  7  9  1  0  0  0  0
  9 10  2  0  0  0  0
  9 19  1  0  0  0  0
 10 11  1  0  0  0  0
 10 36  1  0  0  0  0
 11 12  2  0  0  0  0
 11 37  1  0  0  0  0
 12 13  1  0  0  0  0
 12 18  1  0  0  0  0
 13 14  2  0  0  0  0
 13 38  1  0  0  0  0
 14 15  1  0  0  0  0
 15 16  1  0  0  0  0
 15 39  1  0  0  0  0
 16 17  2  0  0  0  0
 16 18  1  0  0  0  0
 18 19  2  0  0  0  0
 19 40  1  0  0  0  0
 20 21  2  0  0  0  0
 20 41  1  0  0  0  0
 21 22  1  0  0  0  0
 22 23  2  0  0  0  0
 22 24  1  0  0  0  0
 24 25  2  0  0  0  0
 24 29  1  0  0  0  0
 25 26  1  0  0  0  0
 25 42  1  0  0  0  0
 26 27  2  0  0  0  0
 26 43  1  0  0  0  0
 27 28  1  0  0  0  0
 27 44  1  0  0  0  0
 28 29  2  0  0  0  0
 28 45  1  0  0  0  0
 29 46  1  0  0  0  0
M  END
$$$$
