
 OpenBabel01122422533D

 57 60  0  0  0  0  0  0  0  0999 V2000
    6.1833   -3.8706    1.5728 C   0  0  0  0  0  0  0  0  0  0  0  0
    5.0721   -3.0111    1.1539 N   0  0  0  0  0  0  0  0  0  0  0  0
    4.0723   -3.8180    0.4487 C   0  0  0  0  0  0  0  0  0  0  0  0
    4.4470   -2.3392    2.3126 C   0  0  0  0  0  0  0  0  0  0  0  0
    5.3896   -1.4031    3.0345 C   0  0  0  0  0  0  0  0  0  0  0  0
    5.9774   -0.3127    2.3682 C   0  0  0  0  0  0  0  0  0  0  0  0
    6.8961    0.5267    3.0241 C   0  0  0  0  0  0  0  0  0  0  0  0
    7.5299    1.7001    2.3148 C   0  0  0  0  0  0  0  0  0  0  0  0
    8.9644    1.5516    2.2216 N   0  0  0  0  0  0  0  0  0  0  0  0
    9.8375    2.5352    2.6281 C   0  0  0  0  0  0  0  0  0  0  0  0
    9.5067    3.5533    3.2257 O   0  0  0  0  0  0  0  0  0  0  0  0
   11.2716    2.2963    2.3167 C   0  0  0  0  0  0  0  0  0  0  0  0
   11.6561    1.5287    1.2023 C   0  0  0  0  0  0  0  0  0  0  0  0
   13.0153    1.3173    0.9505 C   0  0  0  0  0  0  0  0  0  0  0  0
   13.9848    1.8948    1.7677 C   0  0  0  0  0  0  0  0  0  0  0  0
   13.6280    2.7034    2.8396 C   0  0  0  0  0  0  0  0  0  0  0  0
   14.5552    3.3582    3.6753 N   0  0  0  0  0  0  0  0  0  0  0  0
   15.9462    3.2711    3.6096 C   0  0  0  0  0  0  0  0  0  0  0  0
   16.5837    2.6044    2.8065 O   0  0  0  0  0  0  0  0  0  0  0  0
   16.6990    4.0951    4.6030 C   0  0  0  0  0  0  0  0  0  0  0  0
   16.1240    4.5451    5.8053 C   0  0  0  0  0  0  0  0  0  0  0  0
   16.8238    5.3852    6.6805 C   0  0  0  0  0  0  0  0  0  0  0  0
   18.1591    5.6173    6.3618 C   0  0  0  0  0  0  0  0  0  0  0  0
   19.1393    6.4061    6.9020 N   0  0  0  0  0  0  0  0  0  0  0  0
   20.3321    5.8856    6.4953 C   0  0  0  0  0  0  0  0  0  0  0  0
   20.1658    5.2118    5.3783 N   0  0  0  0  0  0  0  0  0  0  0  0
   18.8069    5.0354    5.2780 C   0  0  0  0  0  0  0  0  0  0  0  0
   18.0532    4.3517    4.3232 C   0  0  0  0  0  0  0  0  0  0  0  0
   12.2605    2.9003    3.1093 C   0  0  0  0  0  0  0  0  0  0  0  0
    7.2109    0.2706    4.3657 C   0  0  0  0  0  0  0  0  0  0  0  0
    6.6251   -0.8041    5.0374 C   0  0  0  0  0  0  0  0  0  0  0  0
    5.7206   -1.6252    4.3730 C   0  0  0  0  0  0  0  0  0  0  0  0
    5.1791   -2.6545    5.0385 F   0  0  0  0  0  0  0  0  0  0  0  0
    6.6332   -4.3641    0.7040 H   0  0  0  0  0  0  0  0  0  0  0  0
    5.8675   -4.6413    2.2846 H   0  0  0  0  0  0  0  0  0  0  0  0
    6.9894   -3.2861    2.0310 H   0  0  0  0  0  0  0  0  0  0  0  0
    4.5229   -4.3232   -0.4133 H   0  0  0  0  0  0  0  0  0  0  0  0
    3.2710   -3.1831    0.0551 H   0  0  0  0  0  0  0  0  0  0  0  0
    3.6238   -4.5811    1.0957 H   0  0  0  0  0  0  0  0  0  0  0  0
    4.0323   -3.0813    3.0077 H   0  0  0  0  0  0  0  0  0  0  0  0
    3.5960   -1.7336    1.9698 H   0  0  0  0  0  0  0  0  0  0  0  0
    5.7254   -0.1399    1.3226 H   0  0  0  0  0  0  0  0  0  0  0  0
    7.2504    2.6330    2.8153 H   0  0  0  0  0  0  0  0  0  0  0  0
    7.1646    1.7610    1.2872 H   0  0  0  0  0  0  0  0  0  0  0  0
    9.3100    0.6858    1.8350 H   0  0  0  0  0  0  0  0  0  0  0  0
   10.9311    1.1065    0.5266 H   0  0  0  0  0  0  0  0  0  0  0  0
   13.3190    0.7237    0.0880 H   0  0  0  0  0  0  0  0  0  0  0  0
   15.0244    1.7028    1.5137 H   0  0  0  0  0  0  0  0  0  0  0  0
   14.1471    3.9835    4.3313 H   0  0  0  0  0  0  0  0  0  0  0  0
   15.1270    4.2319    6.1040 H   0  0  0  0  0  0  0  0  0  0  0  0
   16.3747    5.7524    7.5981 H   0  0  0  0  0  0  0  0  0  0  0  0
   19.0078    7.2962    7.3639 H   0  0  0  0  0  0  0  0  0  0  0  0
   21.2660    6.0663    7.0105 H   0  0  0  0  0  0  0  0  0  0  0  0
   18.5341    3.9803    3.4238 H   0  0  0  0  0  0  0  0  0  0  0  0
   11.9546    3.5170    3.9408 H   0  0  0  0  0  0  0  0  0  0  0  0
    7.9200    0.9074    4.8895 H   0  0  0  0  0  0  0  0  0  0  0  0
    6.8721   -1.0082    6.0748 H   0  0  0  0  0  0  0  0  0  0  0  0
  1  2  1  0  0  0  0
  1 34  1  0  0  0  0
  1 35  1  0  0  0  0
  1 36  1  0  0  0  0
  2  3  1  0  0  0  0
  2  4  1  0  0  0  0
  3 37  1  0  0  0  0
  3 38  1  0  0  0  0
  3 39  1  0  0  0  0
  4  5  1  0  0  0  0
  4 40  1  0  0  0  0
  4 41  1  0  0  0  0
  5  6  2  0  0  0  0
  5 32  1  0  0  0  0
  6  7  1  0  0  0  0
  6 42  1  0  0  0  0
  7  8  1  0  0  0  0
  7 30  2  0  0  0  0
  8  9  1  0  0  0  0
  8 43  1  0  0  0  0
  8 44  1  0  0  0  0
  9 10  1  0  0  0  0
  9 45  1  0  0  0  0
 10 11  2  0  0  0  0
 10 12  1  0  0  0  0
 12 13  2  0  0  0  0
 12 29  1  0  0  0  0
 13 14  1  0  0  0  0
 13 46  1  0  0  0  0
 14 15  2  0  0  0  0
 14 47  1  0  0  0  0
 15 16  1  0  0  0  0
 15 48  1  0  0  0  0
 16 17  1  0  0  0  0
 16 29  2  0  0  0  0
 17 18  1  0  0  0  0
 17 49  1  0  0  0  0
 18 19  2  0  0  0  0
 18 20  1  0  0  0  0
 20 21  2  0  0  0  0
 20 28  1  0  0  0  0
 21 22  1  0  0  0  0
 21 50  1  0  0  0  0
 22 23  2  0  0  0  0
 22 51  1  0  0  0  0
 23 24  1  0  0  0  0
 23 27  1  0  0  0  0
 24 25  1  0  0  0  0
 24 52  1  0  0  0  0
 25 26  2  0  0  0  0
 25 53  1  0  0  0  0
 26 27  1  0  0  0  0
 27 28  2  0  0  0  0
 28 54  1  0  0  0  0
 29 55  1  0  0  0  0
 30 31  1  0  0  0  0
 30 56  1  0  0  0  0
 31 32  2  0  0  0  0
 31 57  1  0  0  0  0
 32 33  1  0  0  0  0
M  END
$$$$
