
 OpenBabel01122422463D

 43 46  0  0  0  0  0  0  0  0999 V2000
    3.2079    0.4605    0.9653 O   0  0  0  0  0  0  0  0  0  0  0  0
    2.4710    0.0929    0.0642 C   0  0  0  0  0  0  0  0  0  0  0  0
    2.8585   -0.5586   -1.0603 O   0  0  0  0  0  0  0  0  0  0  0  0
    4.2846   -0.7396   -1.1973 C   0  0  0  0  0  0  0  0  0  0  0  0
    4.8480   -1.8793   -0.4038 C   0  0  0  0  0  0  0  0  0  0  0  0
    4.3740   -3.1265   -0.5316 N   0  0  0  0  0  0  0  0  0  0  0  0
    5.1079   -3.8813    0.3374 N   0  0  0  0  0  0  0  0  0  0  0  0
    4.8024   -5.2580    0.5246 C   0  0  0  0  0  0  0  0  0  0  0  0
    3.7686   -5.8398   -0.2331 C   0  0  0  0  0  0  0  0  0  0  0  0
    3.4193   -7.1792   -0.0407 C   0  0  0  0  0  0  0  0  0  0  0  0
    4.0990   -7.9370    0.9044 C   0  0  0  0  0  0  0  0  0  0  0  0
    3.7540   -9.2163    1.0972 F   0  0  0  0  0  0  0  0  0  0  0  0
    5.1278   -7.3861    1.6535 C   0  0  0  0  0  0  0  0  0  0  0  0
    5.4782   -6.0511    1.4593 C   0  0  0  0  0  0  0  0  0  0  0  0
    6.4739   -5.5710    2.2155 F   0  0  0  0  0  0  0  0  0  0  0  0
    6.0840   -3.1209    0.9411 C   0  0  0  0  0  0  0  0  0  0  0  0
    5.9311   -1.8305    0.4973 C   0  0  0  0  0  0  0  0  0  0  0  0
    1.0151    0.3734    0.0026 C   0  0  0  0  0  0  0  0  0  0  0  0
    0.1546   -0.6011   -0.5335 C   0  0  0  0  0  0  0  0  0  0  0  0
   -1.2218   -0.3927   -0.5379 C   0  0  0  0  0  0  0  0  0  0  0  0
   -1.7021    0.7762    0.0144 C   0  0  0  0  0  0  0  0  0  0  0  0
   -0.9054    1.7383    0.5232 N   0  0  0  0  0  0  0  0  0  0  0  0
    0.4520    1.5571    0.5019 C   0  0  0  0  0  0  0  0  0  0  0  0
    1.1813    2.7678    0.9518 C   0  0  0  0  0  0  0  0  0  0  0  0
    0.6725    3.5608    1.9945 C   0  0  0  0  0  0  0  0  0  0  0  0
    1.3122    4.7436    2.3343 C   0  0  0  0  0  0  0  0  0  0  0  0
    2.4269    5.1938    1.7258 N   0  0  0  0  0  0  0  0  0  0  0  0
    2.9117    4.4292    0.7285 C   0  0  0  0  0  0  0  0  0  0  0  0
    2.3299    3.2435    0.3051 C   0  0  0  0  0  0  0  0  0  0  0  0
    4.8013    0.1991   -0.9606 H   0  0  0  0  0  0  0  0  0  0  0  0
    4.4722   -0.9288   -2.2606 H   0  0  0  0  0  0  0  0  0  0  0  0
    3.2226   -5.2589   -0.9752 H   0  0  0  0  0  0  0  0  0  0  0  0
    2.6184   -7.6309   -0.6182 H   0  0  0  0  0  0  0  0  0  0  0  0
    5.6503   -7.9870    2.3897 H   0  0  0  0  0  0  0  0  0  0  0  0
    6.7947   -3.5333    1.6399 H   0  0  0  0  0  0  0  0  0  0  0  0
    6.5212   -0.9723    0.7880 H   0  0  0  0  0  0  0  0  0  0  0  0
    0.5511   -1.5277   -0.9431 H   0  0  0  0  0  0  0  0  0  0  0  0
   -1.9026   -1.1285   -0.9519 H   0  0  0  0  0  0  0  0  0  0  0  0
   -2.7676    0.9867    0.0576 H   0  0  0  0  0  0  0  0  0  0  0  0
   -0.2337    3.2752    2.5216 H   0  0  0  0  0  0  0  0  0  0  0  0
    0.9224    5.3838    3.1207 H   0  0  0  0  0  0  0  0  0  0  0  0
    3.8074    4.8117    0.2469 H   0  0  0  0  0  0  0  0  0  0  0  0
    2.7743    2.7179   -0.5316 H   0  0  0  0  0  0  0  0  0  0  0  0
  1  2  2  0  0  0  0
  2  3  1  0  0  0  0
  2 18  1  0  0  0  0
  3  4  1  0  0  0  0
  4  5  1  0  0  0  0
  4 30  1  0  0  0  0
  4 31  1  0  0  0  0
  5  6  2  0  0  0  0
  5 17  1  0  0  0  0
  6  7  1  0  0  0  0
  7  8  1  0  0  0  0
  7 16  1  0  0  0  0
  8  9  2  0  0  0  0
  8 14  1  0  0  0  0
  9 10  1  0  0  0  0
  9 32  1  0  0  0  0
 10 11  2  0  0  0  0
 10 33  1  0  0  0  0
 11 12  1  0  0  0  0
 11 13  1  0  0  0  0
 13 14  2  0  0  0  0
 13 34  1  0  0  0  0
 14 15  1  0  0  0  0
 16 17  2  0  0  0  0
 16 35  1  0  0  0  0
 17 36  1  0  0  0  0
 18 19  2  0  0  0  0
 18 23  1  0  0  0  0
 19 20  1  0  0  0  0
 19 37  1  0  0  0  0
 20 21  2  0  0  0  0
 20 38  1  0  0  0  0
 21 22  1  0  0  0  0
 21 39  1  0  0  0  0
 22 23  2  0  0  0  0
 23 24  1  0  0  0  0
 24 25  2  0  0  0  0
 24 29  1  0  0  0  0
 25 26  1  0  0  0  0
 25 40  1  0  0  0  0
 26 27  2  0  0  0  0
 26 41  1  0  0  0  0
 27 28  1  0  0  0  0
 28 29  2  0  0  0  0
 28 42  1  0  0  0  0
 29 43  1  0  0  0  0
M  END
$$$$
