
 OpenBabel01122422533D

 40 43  0  0  0  0  0  0  0  0999 V2000
    0.9548   -0.1804    0.1759 O   0  0  0  0  0  0  0  0  0  0  0  0
    2.1350    0.0397   -0.0785 C   0  0  0  0  0  0  0  0  0  0  0  0
    2.7536    1.2635   -0.1249 N   0  0  0  0  0  0  0  0  0  0  0  0
    2.1216    2.4692    0.1168 C   0  0  0  0  0  0  0  0  0  0  0  0
    2.7999    3.5718   -0.2434 N   0  0  0  0  0  0  0  0  0  0  0  0
    2.1795    4.7667   -0.0757 C   0  0  0  0  0  0  0  0  0  0  0  0
    2.9145    5.9576   -0.5537 C   0  0  0  0  0  0  0  0  0  0  0  0
    3.7906    5.8752   -1.6515 C   0  0  0  0  0  0  0  0  0  0  0  0
    4.4503    7.0076   -2.1298 C   0  0  0  0  0  0  0  0  0  0  0  0
    5.2650    6.8959   -3.1869 F   0  0  0  0  0  0  0  0  0  0  0  0
    4.2707    8.2476   -1.5391 C   0  0  0  0  0  0  0  0  0  0  0  0
    3.4212    8.3413   -0.4504 C   0  0  0  0  0  0  0  0  0  0  0  0
    3.2311    9.5289    0.1390 F   0  0  0  0  0  0  0  0  0  0  0  0
    2.7521    7.2221    0.0440 C   0  0  0  0  0  0  0  0  0  0  0  0
    0.9121    4.8589    0.4690 C   0  0  0  0  0  0  0  0  0  0  0  0
    0.3198    3.6791    0.8320 C   0  0  0  0  0  0  0  0  0  0  0  0
    0.9030    2.4882    0.6619 N   0  0  0  0  0  0  0  0  0  0  0  0
    3.0262   -1.0725   -0.4464 C   0  0  0  0  0  0  0  0  0  0  0  0
    4.3479   -0.9233   -0.6625 N   0  0  0  0  0  0  0  0  0  0  0  0
    4.7832   -2.1610   -1.0291 N   0  0  0  0  0  0  0  0  0  0  0  0
    6.1337   -2.3831   -1.3876 C   0  0  0  0  0  0  0  0  0  0  0  0
    6.5632   -3.6023   -1.9241 C   0  0  0  0  0  0  0  0  0  0  0  0
    7.8978   -3.7414   -2.2776 C   0  0  0  0  0  0  0  0  0  0  0  0
    8.3320   -4.8885   -2.8134 F   0  0  0  0  0  0  0  0  0  0  0  0
    8.7650   -2.6817   -2.0817 C   0  0  0  0  0  0  0  0  0  0  0  0
    8.3833   -1.4935   -1.5578 N   0  0  0  0  0  0  0  0  0  0  0  0
    7.0728   -1.3681   -1.2249 C   0  0  0  0  0  0  0  0  0  0  0  0
    3.7602   -3.0805   -1.0216 C   0  0  0  0  0  0  0  0  0  0  0  0
    2.6243   -2.4133   -0.6434 C   0  0  0  0  0  0  0  0  0  0  0  0
    3.7062    1.3071   -0.4565 H   0  0  0  0  0  0  0  0  0  0  0  0
    3.9577    4.9269   -2.1576 H   0  0  0  0  0  0  0  0  0  0  0  0
    4.7834    9.1228   -1.9190 H   0  0  0  0  0  0  0  0  0  0  0  0
    2.1097    7.3623    0.9093 H   0  0  0  0  0  0  0  0  0  0  0  0
    0.3839    5.7945    0.5882 H   0  0  0  0  0  0  0  0  0  0  0  0
   -0.6738    3.6499    1.2688 H   0  0  0  0  0  0  0  0  0  0  0  0
    5.9012   -4.4421   -2.0984 H   0  0  0  0  0  0  0  0  0  0  0  0
    9.8122   -2.7656   -2.3519 H   0  0  0  0  0  0  0  0  0  0  0  0
    6.8113   -0.3993   -0.8053 H   0  0  0  0  0  0  0  0  0  0  0  0
    3.9081   -4.1189   -1.2741 H   0  0  0  0  0  0  0  0  0  0  0  0
    1.6258   -2.8181   -0.5381 H   0  0  0  0  0  0  0  0  0  0  0  0
  1  2  2  0  0  0  0
  2  3  1  0  0  0  0
  2 18  1  0  0  0  0
  3  4  1  0  0  0  0
  3 30  1  0  0  0  0
  4  5  2  0  0  0  0
  4 17  1  0  0  0  0
  5  6  1  0  0  0  0
  6  7  1  0  0  0  0
  6 15  2  0  0  0  0
  7  8  2  0  0  0  0
  7 14  1  0  0  0  0
  8  9  1  0  0  0  0
  8 31  1  0  0  0  0
  9 10  1  0  0  0  0
  9 11  2  0  0  0  0
 11 12  1  0  0  0  0
 11 32  1  0  0  0  0
 12 13  1  0  0  0  0
 12 14  2  0  0  0  0
 14 33  1  0  0  0  0
 15 16  1  0  0  0  0
 15 34  1  0  0  0  0
 16 17  2  0  0  0  0
 16 35  1  0  0  0  0
 18 19  2  0  0  0  0
 18 29  1  0  0  0  0
 19 20  1  0  0  0  0
 20 21  1  0  0  0  0
 20 28  1  0  0  0  0
 21 22  2  0  0  0  0
 21 27  1  0  0  0  0
 22 23  1  0  0  0  0
 22 36  1  0  0  0  0
 23 24  1  0  0  0  0
 23 25  2  0  0  0  0
 25 26  1  0  0  0  0
 25 37  1  0  0  0  0
 26 27  2  0  0  0  0
 27 38  1  0  0  0  0
 28 29  2  0  0  0  0
 28 39  1  0  0  0  0
 29 40  1  0  0  0  0
M  END
$$$$
