
 OpenBabel01122422533D

 49 52  0  0  0  0  0  0  0  0999 V2000
    1.0473   -0.0088   -0.1130 O   0  0  0  0  0  0  0  0  0  0  0  0
    2.2719    0.0218   -0.1048 C   0  0  0  0  0  0  0  0  0  0  0  0
    2.9907    0.5090   -1.1667 N   0  0  0  0  0  0  0  0  0  0  0  0
    2.3324    0.9632   -2.3724 C   0  0  0  0  0  0  0  0  0  0  0  0
    2.6977    2.3882   -2.7060 C   0  0  0  0  0  0  0  0  0  0  0  0
    3.3111    2.7055   -3.9249 C   0  0  0  0  0  0  0  0  0  0  0  0
    3.6148    4.0335   -4.2421 C   0  0  0  0  0  0  0  0  0  0  0  0
    3.3039    5.0631   -3.3471 C   0  0  0  0  0  0  0  0  0  0  0  0
    3.6506    6.4571   -3.6626 C   0  0  0  0  0  0  0  0  0  0  0  0
    2.7721    7.2101   -4.3512 C   0  0  0  0  0  0  0  0  0  0  0  0
    3.0525    8.5217   -4.6511 N   0  0  0  0  0  0  0  0  0  0  0  0
    4.2094    9.1646   -4.2842 C   0  0  0  0  0  0  0  0  0  0  0  0
    4.4364   10.3380   -4.5539 O   0  0  0  0  0  0  0  0  0  0  0  0
    5.1910    8.3438   -3.5308 C   0  0  0  0  0  0  0  0  0  0  0  0
    4.9064    7.0651   -3.2476 C   0  0  0  0  0  0  0  0  0  0  0  0
    2.6836    4.7520   -2.1323 C   0  0  0  0  0  0  0  0  0  0  0  0
    2.3800    3.4255   -1.8164 C   0  0  0  0  0  0  0  0  0  0  0  0
    3.0787   -0.3816    0.9285 N   0  0  0  0  0  0  0  0  0  0  0  0
    2.6692   -0.9529    2.1606 C   0  0  0  0  0  0  0  0  0  0  0  0
    1.3920   -1.5015    2.3174 C   0  0  0  0  0  0  0  0  0  0  0  0
    0.9916   -2.0202    3.5451 C   0  0  0  0  0  0  0  0  0  0  0  0
    1.8951   -1.9993    4.5847 C   0  0  0  0  0  0  0  0  0  0  0  0
    3.1470   -1.5079    4.4752 N   0  0  0  0  0  0  0  0  0  0  0  0
    3.5411   -0.9798    3.2726 C   0  0  0  0  0  0  0  0  0  0  0  0
    4.9189   -0.3973    3.2792 C   0  0  0  0  0  0  0  0  0  0  0  0
    5.6895   -0.3514    4.4469 C   0  0  0  0  0  0  0  0  0  0  0  0
    6.9431    0.2576    4.4312 C   0  0  0  0  0  0  0  0  0  0  0  0
    7.4148    0.8066    3.2492 C   0  0  0  0  0  0  0  0  0  0  0  0
    6.6151    0.7121    2.1252 C   0  0  0  0  0  0  0  0  0  0  0  0
    5.3931    0.1280    2.1081 N   0  0  0  0  0  0  0  0  0  0  0  0
    3.9833    0.3322   -1.1995 H   0  0  0  0  0  0  0  0  0  0  0  0
    1.2424    0.8875   -2.2898 H   0  0  0  0  0  0  0  0  0  0  0  0
    2.6420    0.2832   -3.1740 H   0  0  0  0  0  0  0  0  0  0  0  0
    3.5513    1.9233   -4.6416 H   0  0  0  0  0  0  0  0  0  0  0  0
    4.0947    4.2584   -5.1919 H   0  0  0  0  0  0  0  0  0  0  0  0
    1.8134    6.8345   -4.6952 H   0  0  0  0  0  0  0  0  0  0  0  0
    2.3814    9.0802   -5.1636 H   0  0  0  0  0  0  0  0  0  0  0  0
    6.1134    8.8253   -3.2369 H   0  0  0  0  0  0  0  0  0  0  0  0
    5.6132    6.4511   -2.6984 H   0  0  0  0  0  0  0  0  0  0  0  0
    2.4305    5.5388   -1.4255 H   0  0  0  0  0  0  0  0  0  0  0  0
    1.8872    3.2001   -0.8712 H   0  0  0  0  0  0  0  0  0  0  0  0
    4.0383   -0.0353    0.9290 H   0  0  0  0  0  0  0  0  0  0  0  0
    0.6828   -1.5412    1.4983 H   0  0  0  0  0  0  0  0  0  0  0  0
   -0.0054   -2.4253    3.6767 H   0  0  0  0  0  0  0  0  0  0  0  0
    1.6287   -2.3845    5.5645 H   0  0  0  0  0  0  0  0  0  0  0  0
    5.3125   -0.7720    5.3755 H   0  0  0  0  0  0  0  0  0  0  0  0
    7.5355    0.3091    5.3402 H   0  0  0  0  0  0  0  0  0  0  0  0
    8.3804    1.2974    3.2060 H   0  0  0  0  0  0  0  0  0  0  0  0
    6.9447    1.1257    1.1759 H   0  0  0  0  0  0  0  0  0  0  0  0
  1  2  2  0  0  0  0
  2  3  1  0  0  0  0
  2 18  1  0  0  0  0
  3  4  1  0  0  0  0
  3 31  1  0  0  0  0
  4  5  1  0  0  0  0
  4 32  1  0  0  0  0
  4 33  1  0  0  0  0
  5  6  2  0  0  0  0
  5 17  1  0  0  0  0
  6  7  1  0  0  0  0
  6 34  1  0  0  0  0
  7  8  2  0  0  0  0
  7 35  1  0  0  0  0
  8  9  1  0  0  0  0
  8 16  1  0  0  0  0
  9 10  2  0  0  0  0
  9 15  1  0  0  0  0
 10 11  1  0  0  0  0
 10 36  1  0  0  0  0
 11 12  1  0  0  0  0
 11 37  1  0  0  0  0
 12 13  2  0  0  0  0
 12 14  1  0  0  0  0
 14 15  2  0  0  0  0
 14 38  1  0  0  0  0
 15 39  1  0  0  0  0
 16 17  2  0  0  0  0
 16 40  1  0  0  0  0
 17 41  1  0  0  0  0
 18 19  1  0  0  0  0
 18 42  1  0  0  0  0
 19 20  2  0  0  0  0
 19 24  1  0  0  0  0
 20 21  1  0  0  0  0
 20 43  1  0  0  0  0
 21 22  2  0  0  0  0
 21 44  1  0  0  0  0
 22 23  1  0  0  0  0
 22 45  1  0  0  0  0
 23 24  2  0  0  0  0
 24 25  1  0  0  0  0
 25 26  2  0  0  0  0
 25 30  1  0  0  0  0
 26 27  1  0  0  0  0
 26 46  1  0  0  0  0
 27 28  2  0  0  0  0
 27 47  1  0  0  0  0
 28 29  1  0  0  0  0
 28 48  1  0  0  0  0
 29 30  2  0  0  0  0
 29 49  1  0  0  0  0
M  END
$$$$
