
 OpenBabel01122422533D

 45 48  0  0  0  0  0  0  0  0999 V2000
    7.8457    2.0592    5.2543 C   0  0  0  0  0  0  0  0  0  0  0  0
    7.5358    1.5707    3.8686 C   0  0  0  0  0  0  0  0  0  0  0  0
    7.8580    0.2651    3.5250 C   0  0  0  0  0  0  0  0  0  0  0  0
    7.6197   -0.2820    2.3199 N   0  0  0  0  0  0  0  0  0  0  0  0
    7.0031    0.4923    1.3821 C   0  0  0  0  0  0  0  0  0  0  0  0
    6.7406   -0.1691    0.0378 C   0  0  0  0  0  0  0  0  0  0  0  0
    7.1787   -1.5324    0.0571 O   0  0  0  0  0  0  0  0  0  0  0  0
    8.4891   -1.6924   -0.2320 C   0  0  0  0  0  0  0  0  0  0  0  0
    9.1884   -0.9420   -0.8861 O   0  0  0  0  0  0  0  0  0  0  0  0
    9.0022   -2.9596    0.4204 C   0  0  0  0  0  0  0  0  0  0  0  0
    8.1781   -3.9697    0.5089 N   0  0  0  0  0  0  0  0  0  0  0  0
    8.5929   -5.0960    1.1767 N   0  0  0  0  0  0  0  0  0  0  0  0
    7.6084   -6.1280    1.2417 C   0  0  0  0  0  0  0  0  0  0  0  0
    6.6916   -6.2769    0.1824 C   0  0  0  0  0  0  0  0  0  0  0  0
    5.6954   -7.2580    0.2098 C   0  0  0  0  0  0  0  0  0  0  0  0
    5.5890   -8.1046    1.3070 C   0  0  0  0  0  0  0  0  0  0  0  0
    6.4860   -7.9860    2.3656 C   0  0  0  0  0  0  0  0  0  0  0  0
    7.4861   -7.0132    2.3255 C   0  0  0  0  0  0  0  0  0  0  0  0
    8.3059   -6.9262    3.3853 F   0  0  0  0  0  0  0  0  0  0  0  0
    9.8546   -5.2115    1.7209 C   0  0  0  0  0  0  0  0  0  0  0  0
   10.8025   -4.2793    1.6405 C   0  0  0  0  0  0  0  0  0  0  0  0
   10.4122   -3.0453    0.9518 C   0  0  0  0  0  0  0  0  0  0  0  0
   11.2136   -2.1321    0.8100 O   0  0  0  0  0  0  0  0  0  0  0  0
    6.6153    1.8288    1.6209 C   0  0  0  0  0  0  0  0  0  0  0  0
    5.9455    2.6352    0.6680 C   0  0  0  0  0  0  0  0  0  0  0  0
    5.5684    3.9460    0.9566 C   0  0  0  0  0  0  0  0  0  0  0  0
    5.8779    4.4922    2.1918 C   0  0  0  0  0  0  0  0  0  0  0  0
    6.5469    3.7221    3.1432 C   0  0  0  0  0  0  0  0  0  0  0  0
    6.9086    2.3795    2.8933 C   0  0  0  0  0  0  0  0  0  0  0  0
    8.2707    1.2648    5.8772 H   0  0  0  0  0  0  0  0  0  0  0  0
    6.9308    2.4020    5.7489 H   0  0  0  0  0  0  0  0  0  0  0  0
    8.5727    2.8766    5.2182 H   0  0  0  0  0  0  0  0  0  0  0  0
    8.3276   -0.4084    4.2381 H   0  0  0  0  0  0  0  0  0  0  0  0
    7.2171    0.3946   -0.7726 H   0  0  0  0  0  0  0  0  0  0  0  0
    5.6620   -0.1880   -0.1506 H   0  0  0  0  0  0  0  0  0  0  0  0
    6.7631   -5.6272   -0.6876 H   0  0  0  0  0  0  0  0  0  0  0  0
    5.0108   -7.3489   -0.6280 H   0  0  0  0  0  0  0  0  0  0  0  0
    4.8022   -8.8544    1.3396 H   0  0  0  0  0  0  0  0  0  0  0  0
    6.4103   -8.6352    3.2315 H   0  0  0  0  0  0  0  0  0  0  0  0
   10.0723   -6.1563    2.2078 H   0  0  0  0  0  0  0  0  0  0  0  0
   11.8044   -4.3827    2.0276 H   0  0  0  0  0  0  0  0  0  0  0  0
    5.6962    2.2483   -0.3172 H   0  0  0  0  0  0  0  0  0  0  0  0
    5.0351    4.5359    0.2160 H   0  0  0  0  0  0  0  0  0  0  0  0
    5.5963    5.5164    2.4224 H   0  0  0  0  0  0  0  0  0  0  0  0
    6.7789    4.1905    4.0970 H   0  0  0  0  0  0  0  0  0  0  0  0
  1  2  1  0  0  0  0
  1 30  1  0  0  0  0
  1 31  1  0  0  0  0
  1 32  1  0  0  0  0
  2  3  2  0  0  0  0
  2 29  1  0  0  0  0
  3  4  1  0  0  0  0
  3 33  1  0  0  0  0
  4  5  2  0  0  0  0
  5  6  1  0  0  0  0
  5 24  1  0  0  0  0
  6  7  1  0  0  0  0
  6 34  1  0  0  0  0
  6 35  1  0  0  0  0
  7  8  1  0  0  0  0
  8  9  2  0  0  0  0
  8 10  1  0  0  0  0
 10 11  2  0  0  0  0
 10 22  1  0  0  0  0
 11 12  1  0  0  0  0
 12 13  1  0  0  0  0
 12 20  1  0  0  0  0
 13 14  2  0  0  0  0
 13 18  1  0  0  0  0
 14 15  1  0  0  0  0
 14 36  1  0  0  0  0
 15 16  2  0  0  0  0
 15 37  1  0  0  0  0
 16 17  1  0  0  0  0
 16 38  1  0  0  0  0
 17 18  2  0  0  0  0
 17 39  1  0  0  0  0
 18 19  1  0  0  0  0
 20 21  2  0  0  0  0
 20 40  1  0  0  0  0
 21 22  1  0  0  0  0
 21 41  1  0  0  0  0
 22 23  2  0  0  0  0
 24 25  2  0  0  0  0
 24 29  1  0  0  0  0
 25 26  1  0  0  0  0
 25 42  1  0  0  0  0
 26 27  2  0  0  0  0
 26 43  1  0  0  0  0
 27 28  1  0  0  0  0
 27 44  1  0  0  0  0
 28 29  2  0  0  0  0
 28 45  1  0  0  0  0
M  END
$$$$
