
 OpenBabel01122422533D

 42 45  0  0  0  0  0  0  0  0999 V2000
    1.0281    0.0610    0.2589 N   0  0  0  0  0  0  0  0  0  0  0  0
    2.3856    0.1257    0.1294 C   0  0  0  0  0  0  0  0  0  0  0  0
    3.1860    1.2588    0.0765 C   0  0  0  0  0  0  0  0  0  0  0  0
    2.6775    2.6216    0.1608 C   0  0  0  0  0  0  0  0  0  0  0  0
    1.4947    2.8172    0.4362 O   0  0  0  0  0  0  0  0  0  0  0  0
    3.5946    3.6298   -0.0948 N   0  0  0  0  0  0  0  0  0  0  0  0
    3.2682    4.9771   -0.0236 C   0  0  0  0  0  0  0  0  0  0  0  0
    2.1600    5.5480    0.5531 C   0  0  0  0  0  0  0  0  0  0  0  0
    2.1928    6.8965    0.2809 N   0  0  0  0  0  0  0  0  0  0  0  0
    1.2166    7.8551    0.6197 C   0  0  0  0  0  0  0  0  0  0  0  0
    0.4206    7.6961    1.7562 C   0  0  0  0  0  0  0  0  0  0  0  0
    0.5962    6.6667    2.5970 F   0  0  0  0  0  0  0  0  0  0  0  0
   -0.5443    8.6456    2.0955 C   0  0  0  0  0  0  0  0  0  0  0  0
   -0.7439    9.7573    1.2804 C   0  0  0  0  0  0  0  0  0  0  0  0
    0.0312    9.9147    0.1326 C   0  0  0  0  0  0  0  0  0  0  0  0
    1.0137    8.9750   -0.1868 C   0  0  0  0  0  0  0  0  0  0  0  0
    1.6811    9.1466   -1.3366 F   0  0  0  0  0  0  0  0  0  0  0  0
    3.3272    7.2293   -0.3875 N   0  0  0  0  0  0  0  0  0  0  0  0
    3.9871    6.0768   -0.5258 C   0  0  0  0  0  0  0  0  0  0  0  0
    4.4954    0.7442    0.0172 C   0  0  0  0  0  0  0  0  0  0  0  0
    4.5448   -0.5844    0.1225 N   0  0  0  0  0  0  0  0  0  0  0  0
    3.2396   -0.9736    0.1344 N   0  0  0  0  0  0  0  0  0  0  0  0
    2.9020   -2.3544    0.1786 C   0  0  0  0  0  0  0  0  0  0  0  0
    3.7692   -3.2524    0.8196 C   0  0  0  0  0  0  0  0  0  0  0  0
    3.4232   -4.6018    0.9150 C   0  0  0  0  0  0  0  0  0  0  0  0
    2.2394   -5.0521    0.3421 C   0  0  0  0  0  0  0  0  0  0  0  0
    1.9193   -6.3502    0.4213 F   0  0  0  0  0  0  0  0  0  0  0  0
    1.3880   -4.1790   -0.3268 C   0  0  0  0  0  0  0  0  0  0  0  0
    1.7138   -2.8241   -0.4035 C   0  0  0  0  0  0  0  0  0  0  0  0
    0.5504    0.9506    0.4492 H   0  0  0  0  0  0  0  0  0  0  0  0
    0.6063   -0.6992    0.7893 H   0  0  0  0  0  0  0  0  0  0  0  0
    4.4975    3.3974   -0.4826 H   0  0  0  0  0  0  0  0  0  0  0  0
    1.3195    5.1083    1.0702 H   0  0  0  0  0  0  0  0  0  0  0  0
   -1.1289    8.5122    3.0018 H   0  0  0  0  0  0  0  0  0  0  0  0
   -1.5002   10.4954    1.5359 H   0  0  0  0  0  0  0  0  0  0  0  0
   -0.1278   10.7610   -0.5299 H   0  0  0  0  0  0  0  0  0  0  0  0
    4.9447    6.0905   -1.0290 H   0  0  0  0  0  0  0  0  0  0  0  0
    5.4344    1.2786   -0.0471 H   0  0  0  0  0  0  0  0  0  0  0  0
    4.6895   -2.9029    1.2841 H   0  0  0  0  0  0  0  0  0  0  0  0
    4.0677   -5.3020    1.4378 H   0  0  0  0  0  0  0  0  0  0  0  0
    0.4820   -4.5588   -0.7876 H   0  0  0  0  0  0  0  0  0  0  0  0
    1.0548   -2.1625   -0.9615 H   0  0  0  0  0  0  0  0  0  0  0  0
  1  2  1  0  0  0  0
  1 30  1  0  0  0  0
  1 31  1  0  0  0  0
  2  3  2  0  0  0  0
  2 22  1  0  0  0  0
  3  4  1  0  0  0  0
  3 20  1  0  0  0  0
  4  5  2  0  0  0  0
  4  6  1  0  0  0  0
  6  7  1  0  0  0  0
  6 32  1  0  0  0  0
  7  8  2  0  0  0  0
  7 19  1  0  0  0  0
  8  9  1  0  0  0  0
  8 33  1  0  0  0  0
  9 10  1  0  0  0  0
  9 18  1  0  0  0  0
 10 11  2  0  0  0  0
 10 16  1  0  0  0  0
 11 12  1  0  0  0  0
 11 13  1  0  0  0  0
 13 14  2  0  0  0  0
 13 34  1  0  0  0  0
 14 15  1  0  0  0  0
 14 35  1  0  0  0  0
 15 16  2  0  0  0  0
 15 36  1  0  0  0  0
 16 17  1  0  0  0  0
 18 19  2  0  0  0  0
 19 37  1  0  0  0  0
 20 21  2  0  0  0  0
 20 38  1  0  0  0  0
 21 22  1  0  0  0  0
 22 23  1  0  0  0  0
 23 24  2  0  0  0  0
 23 29  1  0  0  0  0
 24 25  1  0  0  0  0
 24 39  1  0  0  0  0
 25 26  2  0  0  0  0
 25 40  1  0  0  0  0
 26 27  1  0  0  0  0
 26 28  1  0  0  0  0
 28 29  2  0  0  0  0
 28 41  1  0  0  0  0
 29 42  1  0  0  0  0
M  END
$$$$
