
 OpenBabel01122422533D

 45 48  0  0  0  0  0  0  0  0999 V2000
    3.3467   -1.4008    2.3523 C   0  0  0  0  0  0  0  0  0  0  0  0
    3.5366   -0.6849    1.1017 N   0  0  0  0  0  0  0  0  0  0  0  0
    2.9803   -1.1783   -0.0577 C   0  0  0  0  0  0  0  0  0  0  0  0
    2.3098   -2.2078   -0.1243 O   0  0  0  0  0  0  0  0  0  0  0  0
    3.2016   -0.4551   -1.1968 N   0  0  0  0  0  0  0  0  0  0  0  0
    3.9141    0.7055   -1.2997 C   0  0  0  0  0  0  0  0  0  0  0  0
    4.0604    1.2971   -2.3619 O   0  0  0  0  0  0  0  0  0  0  0  0
    4.4967    1.2131   -0.0613 C   0  0  0  0  0  0  0  0  0  0  0  0
    5.2477    2.3968   -0.0569 C   0  0  0  0  0  0  0  0  0  0  0  0
    5.7859    2.8548    1.1426 C   0  0  0  0  0  0  0  0  0  0  0  0
    6.5865    4.0947    1.2580 C   0  0  0  0  0  0  0  0  0  0  0  0
    7.0521    4.4878    2.3138 O   0  0  0  0  0  0  0  0  0  0  0  0
    6.7147    4.7000    0.0528 O   0  0  0  0  0  0  0  0  0  0  0  0
    7.4901    5.9135    0.0539 C   0  0  0  0  0  0  0  0  0  0  0  0
    8.9536    5.6522    0.0240 C   0  0  0  0  0  0  0  0  0  0  0  0
    9.8208    5.5015    1.0804 C   0  0  0  0  0  0  0  0  0  0  0  0
   11.0549    5.2309    0.5825 O   0  0  0  0  0  0  0  0  0  0  0  0
   10.8840    5.2504   -0.7781 C   0  0  0  0  0  0  0  0  0  0  0  0
   12.0624    4.9648   -1.5901 C   0  0  0  0  0  0  0  0  0  0  0  0
   13.3071    4.6958   -1.0024 C   0  0  0  0  0  0  0  0  0  0  0  0
   14.4035    4.3394   -1.7862 C   0  0  0  0  0  0  0  0  0  0  0  0
   14.2833    4.3007   -3.1727 C   0  0  0  0  0  0  0  0  0  0  0  0
   13.0726    4.6385   -3.7950 C   0  0  0  0  0  0  0  0  0  0  0  0
   12.9807    4.7008   -5.2998 C   0  0  0  0  0  0  0  0  0  0  0  0
   14.1602    4.4100   -5.9205 F   0  0  0  0  0  0  0  0  0  0  0  0
   12.0670    3.8344   -5.8140 F   0  0  0  0  0  0  0  0  0  0  0  0
   12.6259    5.9365   -5.7497 F   0  0  0  0  0  0  0  0  0  0  0  0
   11.9592    4.9408   -2.9916 C   0  0  0  0  0  0  0  0  0  0  0  0
    9.6457    5.5027   -1.1596 N   0  0  0  0  0  0  0  0  0  0  0  0
    5.5458    2.0965    2.2816 C   0  0  0  0  0  0  0  0  0  0  0  0
    4.8179    0.9423    2.2945 N   0  0  0  0  0  0  0  0  0  0  0  0
    4.2971    0.5081    1.1212 C   0  0  0  0  0  0  0  0  0  0  0  0
    2.7482   -2.3054    2.2088 H   0  0  0  0  0  0  0  0  0  0  0  0
    2.8223   -0.7584    3.0663 H   0  0  0  0  0  0  0  0  0  0  0  0
    4.3192   -1.6998    2.7549 H   0  0  0  0  0  0  0  0  0  0  0  0
    2.7907   -0.8202   -2.0438 H   0  0  0  0  0  0  0  0  0  0  0  0
    5.3969    2.9409   -0.9867 H   0  0  0  0  0  0  0  0  0  0  0  0
    7.2184    6.5388    0.9122 H   0  0  0  0  0  0  0  0  0  0  0  0
    7.2068    6.4791   -0.8418 H   0  0  0  0  0  0  0  0  0  0  0  0
    9.7257    5.5316    2.1568 H   0  0  0  0  0  0  0  0  0  0  0  0
   13.4308    4.7486    0.0779 H   0  0  0  0  0  0  0  0  0  0  0  0
   15.3519    4.0923   -1.3151 H   0  0  0  0  0  0  0  0  0  0  0  0
   15.1460    4.0157   -3.7732 H   0  0  0  0  0  0  0  0  0  0  0  0
   10.9992    5.1644   -3.4601 H   0  0  0  0  0  0  0  0  0  0  0  0
    5.9385    2.3945    3.2532 H   0  0  0  0  0  0  0  0  0  0  0  0
  1  2  1  0  0  0  0
  1 33  1  0  0  0  0
  1 34  1  0  0  0  0
  1 35  1  0  0  0  0
  2  3  1  0  0  0  0
  2 32  1  0  0  0  0
  3  4  2  0  0  0  0
  3  5  1  0  0  0  0
  5  6  1  0  0  0  0
  5 36  1  0  0  0  0
  6  7  2  0  0  0  0
  6  8  1  0  0  0  0
  8  9  2  0  0  0  0
  8 32  1  0  0  0  0
  9 10  1  0  0  0  0
  9 37  1  0  0  0  0
 10 11  1  0  0  0  0
 10 30  2  0  0  0  0
 11 12  2  0  0  0  0
 11 13  1  0  0  0  0
 13 14  1  0  0  0  0
 14 15  1  0  0  0  0
 14 38  1  0  0  0  0
 14 39  1  0  0  0  0
 15 16  2  0  0  0  0
 15 29  1  0  0  0  0
 16 17  1  0  0  0  0
 16 40  1  0  0  0  0
 17 18  1  0  0  0  0
 18 19  1  0  0  0  0
 18 29  2  0  0  0  0
 19 20  2  0  0  0  0
 19 28  1  0  0  0  0
 20 21  1  0  0  0  0
 20 41  1  0  0  0  0
 21 22  2  0  0  0  0
 21 42  1  0  0  0  0
 22 23  1  0  0  0  0
 22 43  1  0  0  0  0
 23 24  1  0  0  0  0
 23 28  2  0  0  0  0
 24 25  1  0  0  0  0
 24 26  1  0  0  0  0
 24 27  1  0  0  0  0
 28 44  1  0  0  0  0
 30 31  1  0  0  0  0
 30 45  1  0  0  0  0
 31 32  2  0  0  0  0
M  END
$$$$
