
 OpenBabel01122422533D

 51 54  0  0  1  0  0  0  0  0999 V2000
    1.6960   -0.6539   -2.2809 C   0  0  0  0  0  0  0  0  0  0  0  0
    0.6701   -0.3172   -1.2313 C   0  0  0  0  0  0  0  0  0  0  0  0
    0.1071    0.9732   -1.2570 C   0  0  0  0  0  0  0  0  0  0  0  0
   -0.8409    1.3659   -0.3152 C   0  0  0  0  0  0  0  0  0  0  0  0
   -1.2549    0.4694    0.6597 C   0  0  0  0  0  0  0  0  0  0  0  0
   -0.6998   -0.8098    0.7092 C   0  0  0  0  0  0  0  0  0  0  0  0
    0.2874   -1.2243   -0.2125 C   0  0  0  0  0  0  0  0  0  0  0  0
    1.0079   -2.5643    0.0101 C   0  0  3  0  0  0  0  0  0  0  0  0
    0.0786   -3.6946    0.0771 N   0  0  0  0  0  0  0  0  0  0  0  0
   -0.1090   -4.5256   -1.0049 C   0  0  0  0  0  0  0  0  0  0  0  0
    0.4608   -4.3840   -2.0793 O   0  0  0  0  0  0  0  0  0  0  0  0
   -1.1162   -5.6187   -0.8594 C   0  0  0  0  0  0  0  0  0  0  0  0
   -1.8463   -5.9566   -2.0196 C   0  0  0  0  0  0  0  0  0  0  0  0
   -2.8309   -6.9310   -1.9802 C   0  0  0  0  0  0  0  0  0  0  0  0
   -3.1104   -7.5209   -0.7547 C   0  0  0  0  0  0  0  0  0  0  0  0
   -4.3223   -8.3043   -0.5988 C   0  0  0  0  0  0  0  0  0  0  0  0
   -4.6713   -9.1577   -1.4074 O   0  0  0  0  0  0  0  0  0  0  0  0
   -5.0476   -7.8799    0.5063 N   0  0  0  0  0  0  0  0  0  0  0  0
   -6.3217   -7.2736    0.1842 C   0  0  0  0  0  0  0  0  0  0  0  0
   -4.4268   -7.6871    1.7120 C   0  0  0  0  0  0  0  0  0  0  0  0
   -5.0015   -7.5418    2.7824 O   0  0  0  0  0  0  0  0  0  0  0  0
   -3.0314   -7.5744    1.6374 N   0  0  0  0  0  0  0  0  0  0  0  0
   -2.4517   -7.1676    0.4174 C   0  0  0  0  0  0  0  0  0  0  0  0
   -1.3813   -6.2724    0.3642 C   0  0  0  0  0  0  0  0  0  0  0  0
    1.9040   -2.4689    1.2540 C   0  0  0  0  0  0  0  0  0  0  0  0
    1.4391   -2.7674    2.5462 C   0  0  0  0  0  0  0  0  0  0  0  0
    2.2284   -2.5035    3.6700 C   0  0  0  0  0  0  0  0  0  0  0  0
    3.4958   -1.9491    3.5156 C   0  0  0  0  0  0  0  0  0  0  0  0
    4.4409   -1.5775    4.9039 Cl  0  0  0  0  0  0  0  0  0  0  0  0
    3.9920   -1.6754    2.2456 C   0  0  0  0  0  0  0  0  0  0  0  0
    3.2010   -1.9338    1.1227 C   0  0  0  0  0  0  0  0  0  0  0  0
    1.7441    0.1212   -3.0546 H   0  0  0  0  0  0  0  0  0  0  0  0
    1.4383   -1.5890   -2.7867 H   0  0  0  0  0  0  0  0  0  0  0  0
    2.6910   -0.7317   -1.8347 H   0  0  0  0  0  0  0  0  0  0  0  0
    0.4196    1.6935   -2.0113 H   0  0  0  0  0  0  0  0  0  0  0  0
   -1.2491    2.3728   -0.3411 H   0  0  0  0  0  0  0  0  0  0  0  0
   -1.9894    0.7739    1.4004 H   0  0  0  0  0  0  0  0  0  0  0  0
   -1.0154   -1.4672    1.5143 H   0  0  0  0  0  0  0  0  0  0  0  0
    1.6748   -2.7676   -0.8339 H   0  0  0  0  0  0  0  0  0  0  0  0
   -0.6208   -3.6825    0.8015 H   0  0  0  0  0  0  0  0  0  0  0  0
   -1.6639   -5.4254   -2.9531 H   0  0  0  0  0  0  0  0  0  0  0  0
   -3.4367   -7.1586   -2.8537 H   0  0  0  0  0  0  0  0  0  0  0  0
   -6.1252   -6.4881   -0.5663 H   0  0  0  0  0  0  0  0  0  0  0  0
   -6.7776   -6.7900    1.0523 H   0  0  0  0  0  0  0  0  0  0  0  0
   -6.9941   -7.9960   -0.2820 H   0  0  0  0  0  0  0  0  0  0  0  0
   -2.5739   -7.3842    2.5197 H   0  0  0  0  0  0  0  0  0  0  0  0
   -0.8231   -6.0172    1.2579 H   0  0  0  0  0  0  0  0  0  0  0  0
    0.4429   -3.1688    2.7027 H   0  0  0  0  0  0  0  0  0  0  0  0
    1.8377   -2.7091    4.6629 H   0  0  0  0  0  0  0  0  0  0  0  0
    4.9795   -1.2389    2.1214 H   0  0  0  0  0  0  0  0  0  0  0  0
    3.5949   -1.6797    0.1407 H   0  0  0  0  0  0  0  0  0  0  0  0
  1  2  1  0  0  0  0
  1 32  1  0  0  0  0
  1 33  1  0  0  0  0
  1 34  1  0  0  0  0
  2  3  2  0  0  0  0
  2  7  1  0  0  0  0
  3  4  1  0  0  0  0
  3 35  1  0  0  0  0
  4  5  2  0  0  0  0
  4 36  1  0  0  0  0
  5  6  1  0  0  0  0
  5 37  1  0  0  0  0
  6  7  2  0  0  0  0
  6 38  1  0  0  0  0
  7  8  1  0  0  0  0
  8  9  1  0  0  0  0
  8 25  1  0  0  0  0
  8 39  1  0  0  0  0
  9 10  1  0  0  0  0
  9 40  1  0  0  0  0
 10 11  2  0  0  0  0
 10 12  1  0  0  0  0
 12 13  2  0  0  0  0
 12 24  1  0  0  0  0
 13 14  1  0  0  0  0
 13 41  1  0  0  0  0
 14 15  2  0  0  0  0
 14 42  1  0  0  0  0
 15 16  1  0  0  0  0
 15 23  1  0  0  0  0
 16 17  2  0  0  0  0
 16 18  1  0  0  0  0
 18 19  1  0  0  0  0
 18 20  1  0  0  0  0
 19 43  1  0  0  0  0
 19 44  1  0  0  0  0
 19 45  1  0  0  0  0
 20 21  2  0  0  0  0
 20 22  1  0  0  0  0
 22 23  1  0  0  0  0
 22 46  1  0  0  0  0
 23 24  2  0  0  0  0
 24 47  1  0  0  0  0
 25 26  2  0  0  0  0
 25 31  1  0  0  0  0
 26 27  1  0  0  0  0
 26 48  1  0  0  0  0
 27 28  2  0  0  0  0
 27 49  1  0  0  0  0
 28 29  1  0  0  0  0
 28 30  1  0  0  0  0
 30 31  2  0  0  0  0
 30 50  1  0  0  0  0
 31 51  1  0  0  0  0
M  END
$$$$
