
 OpenBabel01122422533D

 42 45  0  0  0  0  0  0  0  0999 V2000
    4.4391   -2.5186    5.1984 C   0  0  0  0  0  0  0  0  0  0  0  0
    5.4507   -1.5497    4.9579 O   0  0  0  0  0  0  0  0  0  0  0  0
    5.1585   -0.5529    4.0703 C   0  0  0  0  0  0  0  0  0  0  0  0
    3.9804   -0.4325    3.3275 C   0  0  0  0  0  0  0  0  0  0  0  0
    3.7899    0.6650    2.4817 C   0  0  0  0  0  0  0  0  0  0  0  0
    4.7958    1.6242    2.3728 C   0  0  0  0  0  0  0  0  0  0  0  0
    4.6234    2.8009    1.5384 C   0  0  0  0  0  0  0  0  0  0  0  0
    5.5355    3.6996    1.3508 N   0  0  0  0  0  0  0  0  0  0  0  0
    6.7655    3.5385    1.9759 N   0  0  0  0  0  0  0  0  0  0  0  0
    7.7571    4.5066    1.6138 C   0  0  0  0  0  0  0  0  0  0  0  0
    9.0173    4.3511    2.0477 N   0  0  0  0  0  0  0  0  0  0  0  0
    9.9515    5.2323    1.6721 C   0  0  0  0  0  0  0  0  0  0  0  0
   11.3344    5.0115    2.1375 C   0  0  0  0  0  0  0  0  0  0  0  0
   11.6668    3.9177    2.9620 C   0  0  0  0  0  0  0  0  0  0  0  0
   12.9785    3.7061    3.4011 C   0  0  0  0  0  0  0  0  0  0  0  0
   13.9888    4.5862    3.0242 C   0  0  0  0  0  0  0  0  0  0  0  0
   13.6914    5.6739    2.2077 C   0  0  0  0  0  0  0  0  0  0  0  0
   12.3791    5.8804    1.7714 C   0  0  0  0  0  0  0  0  0  0  0  0
    9.7051    6.2870    0.8813 N   0  0  0  0  0  0  0  0  0  0  0  0
    8.4330    6.4509    0.4470 C   0  0  0  0  0  0  0  0  0  0  0  0
    8.1007    7.6229   -0.4586 C   0  0  0  0  0  0  0  0  0  0  0  0
    9.1498    8.4522   -0.7124 F   0  0  0  0  0  0  0  0  0  0  0  0
    7.6404    7.2202   -1.6799 F   0  0  0  0  0  0  0  0  0  0  0  0
    7.1163    8.4165    0.0574 F   0  0  0  0  0  0  0  0  0  0  0  0
    7.4270    5.5697    0.7947 C   0  0  0  0  0  0  0  0  0  0  0  0
    7.0562    2.4887    2.8620 C   0  0  0  0  0  0  0  0  0  0  0  0
    8.1006    2.3007    3.4821 O   0  0  0  0  0  0  0  0  0  0  0  0
    5.9853    1.4944    3.0648 C   0  0  0  0  0  0  0  0  0  0  0  0
    6.1631    0.4073    3.9273 C   0  0  0  0  0  0  0  0  0  0  0  0
    4.7845   -3.1687    6.0075 H   0  0  0  0  0  0  0  0  0  0  0  0
    4.2811   -3.1384    4.3101 H   0  0  0  0  0  0  0  0  0  0  0  0
    3.5047   -2.0509    5.5263 H   0  0  0  0  0  0  0  0  0  0  0  0
    3.1908   -1.1750    3.3894 H   0  0  0  0  0  0  0  0  0  0  0  0
    2.8646    0.7551    1.9186 H   0  0  0  0  0  0  0  0  0  0  0  0
    3.6514    2.9369    1.0350 H   0  0  0  0  0  0  0  0  0  0  0  0
   10.8944    3.2133    3.2725 H   0  0  0  0  0  0  0  0  0  0  0  0
   13.2038    2.8542    4.0373 H   0  0  0  0  0  0  0  0  0  0  0  0
   15.0080    4.4240    3.3655 H   0  0  0  0  0  0  0  0  0  0  0  0
   14.4751    6.3628    1.9085 H   0  0  0  0  0  0  0  0  0  0  0  0
   12.1733    6.7385    1.1321 H   0  0  0  0  0  0  0  0  0  0  0  0
    6.4163    5.7192    0.4273 H   0  0  0  0  0  0  0  0  0  0  0  0
    7.0884    0.3041    4.4926 H   0  0  0  0  0  0  0  0  0  0  0  0
  1  2  1  0  0  0  0
  1 30  1  0  0  0  0
  1 31  1  0  0  0  0
  1 32  1  0  0  0  0
  2  3  1  0  0  0  0
  3  4  2  0  0  0  0
  3 29  1  0  0  0  0
  4  5  1  0  0  0  0
  4 33  1  0  0  0  0
  5  6  2  0  0  0  0
  5 34  1  0  0  0  0
  6  7  1  0  0  0  0
  6 28  1  0  0  0  0
  7  8  2  0  0  0  0
  7 35  1  0  0  0  0
  8  9  1  0  0  0  0
  9 10  1  0  0  0  0
  9 26  1  0  0  0  0
 10 11  2  0  0  0  0
 10 25  1  0  0  0  0
 11 12  1  0  0  0  0
 12 13  1  0  0  0  0
 12 19  2  0  0  0  0
 13 14  2  0  0  0  0
 13 18  1  0  0  0  0
 14 15  1  0  0  0  0
 14 36  1  0  0  0  0
 15 16  2  0  0  0  0
 15 37  1  0  0  0  0
 16 17  1  0  0  0  0
 16 38  1  0  0  0  0
 17 18  2  0  0  0  0
 17 39  1  0  0  0  0
 18 40  1  0  0  0  0
 19 20  1  0  0  0  0
 20 21  1  0  0  0  0
 20 25  2  0  0  0  0
 21 22  1  0  0  0  0
 21 23  1  0  0  0  0
 21 24  1  0  0  0  0
 25 41  1  0  0  0  0
 26 27  2  0  0  0  0
 26 28  1  0  0  0  0
 28 29  2  0  0  0  0
 29 42  1  0  0  0  0
M  END
$$$$
