
     RDKit          3D

 54 62  0  0  0  0  0  0  0  0999 V2000
  130.7818  136.8272  134.5634 C   0  0  2  0  0  0  0  0  0  0  0  0
  130.4969  137.2039  133.1013 C   0  0  2  0  0  0  0  0  0  0  0  0
  130.9999  138.9208  132.8735 S   0  0  0  0  0  0  0  0  0  0  0  0
  129.6579  140.0269  132.4864 C   0  0  0  0  0  0  0  0  0  0  0  0
  129.8651  141.4287  133.0094 C   0  0  1  0  0  0  0  0  0  0  0  0
  131.1501  141.8681  132.4926 N   0  0  0  0  0  0  0  0  0  0  0  0
  131.2045  141.8954  131.0715 C   0  0  0  0  0  0  0  0  0  0  0  0
  130.0537  142.4937  130.3601 C   0  0  0  0  0  0  0  0  0  0  0  0
  128.8661  142.7774  131.2020 C   0  0  0  0  0  0  0  0  0  0  0  0
  128.7699  142.2721  132.4639 C   0  0  0  0  0  0  0  0  0  0  0  0
  127.6488  142.5581  133.2181 C   0  0  0  0  0  0  0  0  0  0  0  0
  126.6066  143.3425  132.7475 C   0  0  0  0  0  0  0  0  0  0  0  0
  125.4785  143.6285  133.5102 O   0  0  0  0  0  0  0  0  0  0  0  0
  125.2141  143.0267  134.7462 C   0  0  0  0  0  0  0  0  0  0  0  0
  126.7081  143.8517  131.4702 C   0  0  0  0  0  0  0  0  0  0  0  0
  125.6818  144.6475  130.9542 O   0  0  0  0  0  0  0  0  0  0  0  0
  127.8277  143.5645  130.7208 C   0  0  0  0  0  0  0  0  0  0  0  0
  129.9540  141.5008  134.4882 C   0  0  0  0  0  0  0  0  0  0  0  0
  130.1765  142.6747  134.9450 O   0  0  0  0  0  0  0  0  0  0  0  0
  129.8025  140.3755  135.2308 O   0  0  0  0  0  0  0  0  0  0  0  0
  128.6764  139.6049  135.4921 C   0  0  0  0  0  0  0  0  0  0  0  0
  128.9794  138.1180  135.3041 C   0  0  2  0  0  0  0  0  0  0  0  0
  130.4011  137.9768  135.3212 N   0  0  0  0  0  0  0  0  0  0  0  0
  130.9688  138.0695  136.6320 C   0  0  1  0  0  0  0  0  0  0  0  0
  130.3799  137.2662  137.5745 O   0  0  0  0  0  0  0  0  0  0  0  0
  132.4520  137.7752  136.5291 C   0  0  2  0  0  0  0  0  0  0  0  0
  133.1555  138.7034  135.6001 C   0  0  0  0  0  0  0  0  0  0  0  0
  133.7046  138.0574  134.3904 C   0  0  0  0  0  0  0  0  0  0  0  0
  134.7208  138.6210  133.6489 C   0  0  0  0  0  0  0  0  0  0  0  0
  135.2456  138.0040  132.5147 C   0  0  0  0  0  0  0  0  0  0  0  0
  136.3368  138.6674  131.7664 C   0  0  0  0  0  0  0  0  0  0  0  0
  134.7310  136.7890  132.1211 C   0  0  0  0  0  0  0  0  0  0  0  0
  135.2578  136.1858  130.9961 O   0  0  0  0  0  0  0  0  0  0  0  0
  134.6245  136.1751  129.7401 C   0  0  0  0  0  0  0  0  0  0  0  0
  133.7156  136.1896  132.8317 C   0  0  0  0  0  0  0  0  0  0  0  0
  133.2087  134.9639  132.4235 O   0  0  0  0  0  0  0  0  0  0  0  0
  133.2122  136.8241  133.9539 C   0  0  0  0  0  0  0  0  0  0  0  0
  132.1214  136.2640  134.7840 C   0  0  1  0  0  0  0  0  0  0  0  0
  132.5398  136.3733  136.1674 N   0  0  0  0  0  0  0  0  0  0  0  0
  133.8237  135.8164  136.4257 C   0  0  0  0  0  0  0  0  0  0  0  0
  128.3172  137.5830  134.1051 C   0  0  0  0  0  0  0  0  0  0  0  0
  126.9488  137.5170  134.0493 C   0  0  0  0  0  0  0  0  0  0  0  0
  125.9163  137.8539  134.9040 O   0  0  0  0  0  0  0  0  0  0  0  0
  124.7216  137.2424  134.4473 C   0  0  0  0  0  0  0  0  0  0  0  0
  124.9509  137.0327  133.0675 O   0  0  0  0  0  0  0  0  0  0  0  0
  126.3293  137.0054  132.9064 C   0  0  0  0  0  0  0  0  0  0  0  0
  127.0502  136.5588  131.8194 C   0  0  0  0  0  0  0  0  0  0  0  0
  126.3763  136.0112  130.5970 C   0  0  0  0  0  0  0  0  0  0  0  0
  128.4329  136.6246  131.8742 C   0  0  0  0  0  0  0  0  0  0  0  0
  129.1698  136.1781  130.7913 O   0  0  0  0  0  0  0  0  0  0  0  0
  130.5427  136.2197  130.7990 C   0  0  0  0  0  0  0  0  0  0  0  0
  131.3420  135.1498  130.1097 C   0  0  0  0  0  0  0  0  0  0  0  0
  131.1944  137.1316  131.3684 O   0  0  0  0  0  0  0  0  0  0  0  0
  129.0157  137.1261  132.9956 C   0  0  0  0  0  0  0  0  0  0  0  0
  1  2  1  0
  2  3  1  1
  3  4  1  0
  4  5  1  0
  5  6  1  6
  6  7  1  0
  7  8  1  0
  8  9  1  0
  9 10  2  0
 10 11  1  0
 11 12  2  0
 12 13  1  0
 13 14  1  0
 12 15  1  0
 15 16  1  0
 15 17  2  0
  5 18  1  0
 18 19  2  0
 18 20  1  0
 20 21  1  0
 22 21  1  6
 22 23  1  0
 23 24  1  0
 24 25  1  1
 24 26  1  0
 26 27  1  6
 27 28  1  0
 28 29  2  0
 29 30  1  0
 30 31  1  0
 30 32  2  0
 32 33  1  0
 33 34  1  0
 32 35  1  0
 35 36  1  0
 35 37  2  0
 38 37  1  6
 38 39  1  0
 39 40  1  0
 22 41  1  0
 41 42  2  0
 42 43  1  0
 43 44  1  0
 44 45  1  0
 45 46  1  0
 46 47  2  0
 47 48  1  0
 47 49  1  0
 49 50  1  0
 50 51  1  0
 51 52  1  0
 51 53  2  0
 49 54  2  0
  1 23  1  1
 39 26  1  0
 54 41  1  0
 38  1  1  0
 46 42  1  0
 54  2  1  0
 10  5  1  0
 37 28  1  0
 17  9  1  0
M  END
$$$$
