
     RDKit          3D

 54 62  0  0  0  0  0  0  0  0999 V2000
  202.9070  133.3257  135.5035 C   0  0  2  0  0  0  0  0  0  0  0  0
  203.6244  133.4052  134.1471 C   0  0  2  0  0  0  0  0  0  0  0  0
  203.7362  131.7288  133.4914 S   0  0  0  0  0  0  0  0  0  0  0  0
  205.4027  131.1198  133.3309 C   0  0  0  0  0  0  0  0  0  0  0  0
  205.5174  129.6259  133.5220 C   0  0  1  0  0  0  0  0  0  0  0  0
  204.5844  129.0248  132.5842 N   0  0  0  0  0  0  0  0  0  0  0  0
  204.8723  129.3375  131.2268 C   0  0  0  0  0  0  0  0  0  0  0  0
  206.2828  129.2374  130.7923 C   0  0  0  0  0  0  0  0  0  0  0  0
  207.2708  129.0565  131.8836 C   0  0  0  0  0  0  0  0  0  0  0  0
  206.9127  129.2413  133.1853 C   0  0  0  0  0  0  0  0  0  0  0  0
  207.8603  129.0636  134.1742 C   0  0  0  0  0  0  0  0  0  0  0  0
  209.1714  128.7026  133.9025 C   0  0  0  0  0  0  0  0  0  0  0  0
  210.1235  128.5245  134.9014 O   0  0  0  0  0  0  0  0  0  0  0  0
  209.9465  128.9646  136.2185 C   0  0  0  0  0  0  0  0  0  0  0  0
  209.5293  128.5166  132.5840 C   0  0  0  0  0  0  0  0  0  0  0  0
  210.8397  128.1523  132.2630 O   0  0  0  0  0  0  0  0  0  0  0  0
  208.5817  128.6947  131.6003 C   0  0  0  0  0  0  0  0  0  0  0  0
  205.1139  129.1703  134.8747 C   0  0  0  0  0  0  0  0  0  0  0  0
  205.1602  127.9025  135.0381 O   0  0  0  0  0  0  0  0  0  0  0  0
  204.7384  130.0781  135.8104 O   0  0  0  0  0  0  0  0  0  0  0  0
  205.4829  131.0136  136.5181 C   0  0  0  0  0  0  0  0  0  0  0  0
  204.7934  132.3783  136.5072 C   0  0  2  0  0  0  0  0  0  0  0  0
  203.4332  132.1552  136.1309 N   0  0  0  0  0  0  0  0  0  0  0  0
  202.6328  131.6037  137.1818 C   0  0  1  0  0  0  0  0  0  0  0  0
  202.7130  132.2684  138.3785 O   0  0  0  0  0  0  0  0  0  0  0  0
  201.1970  131.5385  136.7009 C   0  0  2  0  0  0  0  0  0  0  0  0
  201.0458  130.7251  135.4619 C   0  0  0  0  0  0  0  0  0  0  0  0
  200.6226  131.4941  134.2738 C   0  0  0  0  0  0  0  0  0  0  0  0
  200.0278  130.8987  133.1820 C   0  0  0  0  0  0  0  0  0  0  0  0
  199.6184  131.6279  132.0671 C   0  0  0  0  0  0  0  0  0  0  0  0
  198.9864  130.9220  130.9300 C   0  0  0  0  0  0  0  0  0  0  0  0
  199.8146  132.9907  132.0558 C   0  0  0  0  0  0  0  0  0  0  0  0
  199.4052  133.7042  130.9465 O   0  0  0  0  0  0  0  0  0  0  0  0
  198.8468  134.9941  131.0034 C   0  0  0  0  0  0  0  0  0  0  0  0
  200.4048  133.6271  133.1244 C   0  0  0  0  0  0  0  0  0  0  0  0
  200.5941  135.0017  133.0989 O   0  0  0  0  0  0  0  0  0  0  0  0
  200.8027  132.8793  134.2188 C   0  0  0  0  0  0  0  0  0  0  0  0
  201.4467  133.4679  135.4151 C   0  0  1  0  0  0  0  0  0  0  0  0
  200.7725  132.9197  136.5751 N   0  0  0  0  0  0  0  0  0  0  0  0
  199.3568  133.0604  136.5373 C   0  0  0  0  0  0  0  0  0  0  0  0
  205.5203  133.3399  135.6650 C   0  0  0  0  0  0  0  0  0  0  0  0
  206.7771  133.7535  136.0247 C   0  0  0  0  0  0  0  0  0  0  0  0
  207.6350  133.4814  137.0734 O   0  0  0  0  0  0  0  0  0  0  0  0
  208.6582  134.4624  137.0986 C   0  0  0  0  0  0  0  0  0  0  0  0
  208.7028  134.9438  135.7694 O   0  0  0  0  0  0  0  0  0  0  0  0
  207.4587  134.6687  135.2188 C   0  0  0  0  0  0  0  0  0  0  0  0
  206.9090  135.1782  134.0615 C   0  0  0  0  0  0  0  0  0  0  0  0
  207.6483  136.1603  133.2030 C   0  0  0  0  0  0  0  0  0  0  0  0
  205.6392  134.7615  133.6967 C   0  0  0  0  0  0  0  0  0  0  0  0
  205.0737  135.2658  132.5388 O   0  0  0  0  0  0  0  0  0  0  0  0
  204.4621  136.4956  132.5226 C   0  0  0  0  0  0  0  0  0  0  0  0
  203.7834  136.9935  131.2775 C   0  0  0  0  0  0  0  0  0  0  0  0
  204.4348  137.2571  133.5224 O   0  0  0  0  0  0  0  0  0  0  0  0
  204.9934  133.8701  134.4949 C   0  0  0  0  0  0  0  0  0  0  0  0
  1  2  1  0
  2  3  1  1
  3  4  1  0
  4  5  1  0
  5  6  1  6
  6  7  1  0
  7  8  1  0
  8  9  1  0
  9 10  2  0
 10 11  1  0
 11 12  2  0
 12 13  1  0
 13 14  1  0
 12 15  1  0
 15 16  1  0
 15 17  2  0
  5 18  1  0
 18 19  2  0
 18 20  1  0
 20 21  1  0
 22 21  1  6
 22 23  1  0
 23 24  1  0
 24 25  1  1
 24 26  1  0
 26 27  1  6
 27 28  1  0
 28 29  2  0
 29 30  1  0
 30 31  1  0
 30 32  2  0
 32 33  1  0
 33 34  1  0
 32 35  1  0
 35 36  1  0
 35 37  2  0
 38 37  1  6
 38 39  1  0
 39 40  1  0
 22 41  1  0
 41 42  2  0
 42 43  1  0
 43 44  1  0
 44 45  1  0
 45 46  1  0
 46 47  2  0
 47 48  1  0
 47 49  1  0
 49 50  1  0
 50 51  1  0
 51 52  1  0
 51 53  2  0
 49 54  2  0
  1 23  1  6
 39 26  1  0
 54 41  1  0
 38  1  1  0
 46 42  1  0
 54  2  1  0
 10  5  1  0
 37 28  1  0
 17  9  1  0
M  END
$$$$
