
     RDKit          3D

 54 62  0  0  0  0  0  0  0  0999 V2000
  202.2779  132.7666  134.8392 C   0  0  2  0  0  0  0  0  0  0  0  0
  203.1900  132.9035  133.6104 C   0  0  2  0  0  0  0  0  0  0  0  0
  203.8666  134.5753  133.6181 S   0  0  0  0  0  0  0  0  0  0  0  0
  203.3514  135.5753  132.2366 C   0  0  0  0  0  0  0  0  0  0  0  0
  203.2487  137.0460  132.5648 C   0  0  1  0  0  0  0  0  0  0  0  0
  204.5384  137.4297  133.1132 N   0  0  0  0  0  0  0  0  0  0  0  0
  205.6154  137.2362  132.2043 C   0  0  0  0  0  0  0  0  0  0  0  0
  205.4159  137.6886  130.8102 C   0  0  0  0  0  0  0  0  0  0  0  0
  204.0263  138.0720  130.4610 C   0  0  0  0  0  0  0  0  0  0  0  0
  202.9900  137.7677  131.2918 C   0  0  0  0  0  0  0  0  0  0  0  0
  201.7097  138.1412  130.9329 C   0  0  0  0  0  0  0  0  0  0  0  0
  201.4262  138.8176  129.7560 C   0  0  0  0  0  0  0  0  0  0  0  0
  200.1350  139.1923  129.3976 O   0  0  0  0  0  0  0  0  0  0  0  0
  198.9908  138.5033  129.8172 C   0  0  0  0  0  0  0  0  0  0  0  0
  202.4778  139.1235  128.9184 C   0  0  0  0  0  0  0  0  0  0  0  0
  202.2394  139.8043  127.7216 O   0  0  0  0  0  0  0  0  0  0  0  0
  203.7534  138.7495  129.2794 C   0  0  0  0  0  0  0  0  0  0  0  0
  202.2364  137.3502  133.6053 C   0  0  0  0  0  0  0  0  0  0  0  0
  202.1697  138.5859  133.9289 O   0  0  0  0  0  0  0  0  0  0  0  0
  201.4802  136.3513  134.1261 O   0  0  0  0  0  0  0  0  0  0  0  0
  200.4517  135.6044  133.5655 C   0  0  0  0  0  0  0  0  0  0  0  0
  200.6464  134.1140  133.8463 C   0  0  2  0  0  0  0  0  0  0  0  0
  201.5813  134.0110  134.9218 N   0  0  0  0  0  0  0  0  0  0  0  0
  201.0173  134.3206  136.2007 C   0  0  1  0  0  0  0  0  0  0  0  0
  199.8514  133.6605  136.4928 O   0  0  0  0  0  0  0  0  0  0  0  0
  202.0663  134.0492  137.2605 C   0  0  2  0  0  0  0  0  0  0  0  0
  203.3121  134.8375  137.0463 C   0  0  0  0  0  0  0  0  0  0  0  0
  204.5025  134.0238  136.7251 C   0  0  0  0  0  0  0  0  0  0  0  0
  205.7868  134.4886  136.9108 C   0  0  0  0  0  0  0  0  0  0  0  0
  206.9085  133.7148  136.6184 C   0  0  0  0  0  0  0  0  0  0  0  0
  208.2584  134.2791  136.8425 C   0  0  0  0  0  0  0  0  0  0  0  0
  206.7274  132.4414  136.1269 C   0  0  0  0  0  0  0  0  0  0  0  0
  207.8452  131.6827  135.8405 O   0  0  0  0  0  0  0  0  0  0  0  0
  208.1900  130.5020  136.5231 C   0  0  0  0  0  0  0  0  0  0  0  0
  205.4626  131.9364  135.9257 C   0  0  0  0  0  0  0  0  0  0  0  0
  205.2964  130.6503  135.4315 O   0  0  0  0  0  0  0  0  0  0  0  0
  204.3659  132.7260  136.2237 C   0  0  0  0  0  0  0  0  0  0  0  0
  202.9668  132.2767  136.0417 C   0  0  1  0  0  0  0  0  0  0  0  0
  202.2506  132.6105  137.2568 N   0  0  0  0  0  0  0  0  0  0  0  0
  202.8751  132.1314  138.4424 C   0  0  0  0  0  0  0  0  0  0  0  0
  201.0208  133.3828  132.6266 C   0  0  0  0  0  0  0  0  0  0  0  0
  200.1298  133.2765  131.5900 C   0  0  0  0  0  0  0  0  0  0  0  0
  198.8411  133.7180  131.3570 O   0  0  0  0  0  0  0  0  0  0  0  0
  198.3060  133.0146  130.2485 C   0  0  0  0  0  0  0  0  0  0  0  0
  199.4475  132.5976  129.5251 O   0  0  0  0  0  0  0  0  0  0  0  0
  200.4944  132.5782  130.4363 C   0  0  0  0  0  0  0  0  0  0  0  0
  201.7313  131.9846  130.2988 C   0  0  0  0  0  0  0  0  0  0  0  0
  202.1136  131.2371  129.0565 C   0  0  0  0  0  0  0  0  0  0  0  0
  202.6327  132.0910  131.3452 C   0  0  0  0  0  0  0  0  0  0  0  0
  203.8772  131.4985  131.2223 O   0  0  0  0  0  0  0  0  0  0  0  0
  204.1007  130.2152  131.6580 C   0  0  0  0  0  0  0  0  0  0  0  0
  203.0978  129.5229  132.5375 C   0  0  0  0  0  0  0  0  0  0  0  0
  205.1307  129.5614  131.3545 O   0  0  0  0  0  0  0  0  0  0  0  0
  202.2578  132.7751  132.4589 C   0  0  0  0  0  0  0  0  0  0  0  0
  1  2  1  0
  2  3  1  1
  3  4  1  0
  4  5  1  0
  5  6  1  1
  6  7  1  0
  7  8  1  0
  8  9  1  0
  9 10  2  0
 10 11  1  0
 11 12  2  0
 12 13  1  0
 13 14  1  0
 12 15  1  0
 15 16  1  0
 15 17  2  0
  5 18  1  0
 18 19  2  0
 18 20  1  0
 20 21  1  0
 22 21  1  6
 22 23  1  0
 23 24  1  0
 24 25  1  1
 24 26  1  0
 26 27  1  6
 27 28  1  0
 28 29  2  0
 29 30  1  0
 30 31  1  0
 30 32  2  0
 32 33  1  0
 33 34  1  0
 32 35  1  0
 35 36  1  0
 35 37  2  0
 38 37  1  1
 38 39  1  0
 39 40  1  0
 22 41  1  0
 41 42  2  0
 42 43  1  0
 43 44  1  0
 44 45  1  0
 45 46  1  0
 46 47  2  0
 47 48  1  0
 47 49  1  0
 49 50  1  0
 50 51  1  0
 51 52  1  0
 51 53  2  0
 49 54  2  0
  1 23  1  1
 39 26  1  0
 54 41  1  0
 38  1  1  0
 46 42  1  0
 54  2  1  0
 10  5  1  0
 37 28  1  0
 17  9  1  0
M  END
$$$$
