
     RDKit          3D

 54 62  0  0  0  0  0  0  0  0999 V2000
  175.5190  143.6231  122.6227 C   0  0  2  0  0  0  0  0  0  0  0  0
  175.2129  145.1161  122.8176 C   0  0  2  0  0  0  0  0  0  0  0  0
  173.4544  145.3576  122.4980 S   0  0  0  0  0  0  0  0  0  0  0  0
  173.1060  146.3849  121.0847 C   0  0  0  0  0  0  0  0  0  0  0  0
  171.8242  146.0166  120.3758 C   0  0  1  0  0  0  0  0  0  0  0  0
  170.7806  146.0424  121.3864 N   0  0  0  0  0  0  0  0  0  0  0  0
  170.6188  147.3181  121.9946 C   0  0  0  0  0  0  0  0  0  0  0  0
  170.5959  148.4971  121.1016 C   0  0  0  0  0  0  0  0  0  0  0  0
  170.9872  148.2346  119.6952 C   0  0  0  0  0  0  0  0  0  0  0  0
  171.5736  147.0559  119.3437 C   0  0  0  0  0  0  0  0  0  0  0  0
  171.9240  146.8475  118.0241 C   0  0  0  0  0  0  0  0  0  0  0  0
  171.7053  147.7899  117.0306 C   0  0  0  0  0  0  0  0  0  0  0  0
  172.0596  147.5766  115.7021 O   0  0  0  0  0  0  0  0  0  0  0  0
  173.3815  147.3920  115.2799 C   0  0  0  0  0  0  0  0  0  0  0  0
  171.1116  148.9811  117.3908 C   0  0  0  0  0  0  0  0  0  0  0  0
  170.8717  149.9602  116.4230 O   0  0  0  0  0  0  0  0  0  0  0  0
  170.7635  149.1857  118.7078 C   0  0  0  0  0  0  0  0  0  0  0  0
  171.8346  144.6456  119.8097 C   0  0  0  0  0  0  0  0  0  0  0  0
  170.7389  144.3009  119.2468 O   0  0  0  0  0  0  0  0  0  0  0  0
  172.9478  143.8776  119.9173 O   0  0  0  0  0  0  0  0  0  0  0  0
  174.1837  143.9774  119.2907 C   0  0  0  0  0  0  0  0  0  0  0  0
  175.3201  143.8294  120.3029 C   0  0  2  0  0  0  0  0  0  0  0  0
  174.7590  143.2376  121.4762 N   0  0  0  0  0  0  0  0  0  0  0  0
  174.5074  141.8346  121.3439 C   0  0  1  0  0  0  0  0  0  0  0  0
  175.5663  141.0994  120.8763 O   0  0  0  0  0  0  0  0  0  0  0  0
  174.0408  141.3073  122.6861 C   0  0  2  0  0  0  0  0  0  0  0  0
  172.8187  142.0020  123.1792 C   0  0  0  0  0  0  0  0  0  0  0  0
  173.0225  142.8007  124.4052 C   0  0  0  0  0  0  0  0  0  0  0  0
  171.9825  143.1530  125.2384 C   0  0  0  0  0  0  0  0  0  0  0  0
  172.1786  143.8964  126.4009 C   0  0  0  0  0  0  0  0  0  0  0  0
  171.0148  144.2390  127.2487 C   0  0  0  0  0  0  0  0  0  0  0  0
  173.4560  144.2927  126.7286 C   0  0  0  0  0  0  0  0  0  0  0  0
  173.6398  145.0287  127.8825 O   0  0  0  0  0  0  0  0  0  0  0  0
  174.7382  144.8733  128.7475 C   0  0  0  0  0  0  0  0  0  0  0  0
  174.5244  143.9632  125.9254 C   0  0  0  0  0  0  0  0  0  0  0  0
  175.8062  144.3682  126.2700 O   0  0  0  0  0  0  0  0  0  0  0  0
  174.3018  143.2247  124.7763 C   0  0  0  0  0  0  0  0  0  0  0  0
  175.3817  142.8214  123.8470 C   0  0  1  0  0  0  0  0  0  0  0  0
  175.1932  141.4131  123.5604 N   0  0  0  0  0  0  0  0  0  0  0  0
  175.0802  140.5998  124.7228 C   0  0  0  0  0  0  0  0  0  0  0  0
  176.0121  145.1081  120.5233 C   0  0  0  0  0  0  0  0  0  0  0  0
  176.7252  145.6863  119.5050 C   0  0  0  0  0  0  0  0  0  0  0  0
  176.9964  145.3586  118.1901 O   0  0  0  0  0  0  0  0  0  0  0  0
  178.0702  146.1601  117.7271 C   0  0  0  0  0  0  0  0  0  0  0  0
  178.0341  147.2977  118.5667 O   0  0  0  0  0  0  0  0  0  0  0  0
  177.3805  146.9003  119.7250 C   0  0  0  0  0  0  0  0  0  0  0  0
  177.3372  147.5468  120.9420 C   0  0  0  0  0  0  0  0  0  0  0  0
  178.0439  148.8497  121.1686 C   0  0  0  0  0  0  0  0  0  0  0  0
  176.6173  146.9639  121.9720 C   0  0  0  0  0  0  0  0  0  0  0  0
  176.5664  147.6003  123.1998 O   0  0  0  0  0  0  0  0  0  0  0  0
  177.4595  147.2944  124.1975 C   0  0  0  0  0  0  0  0  0  0  0  0
  178.9239  147.1491  123.8921 C   0  0  0  0  0  0  0  0  0  0  0  0
  177.1134  147.1225  125.3938 O   0  0  0  0  0  0  0  0  0  0  0  0
  175.9867  145.7825  121.7367 C   0  0  0  0  0  0  0  0  0  0  0  0
  1  2  1  0
  2  3  1  6
  3  4  1  0
  4  5  1  0
  5  6  1  1
  6  7  1  0
  7  8  1  0
  8  9  1  0
  9 10  2  0
 10 11  1  0
 11 12  2  0
 12 13  1  0
 13 14  1  0
 12 15  1  0
 15 16  1  0
 15 17  2  0
  5 18  1  0
 18 19  2  0
 18 20  1  0
 20 21  1  0
 22 21  1  6
 22 23  1  0
 23 24  1  0
 24 25  1  1
 24 26  1  0
 26 27  1  1
 27 28  1  0
 28 29  2  0
 29 30  1  0
 30 31  1  0
 30 32  2  0
 32 33  1  0
 33 34  1  0
 32 35  1  0
 35 36  1  0
 35 37  2  0
 38 37  1  6
 38 39  1  0
 39 40  1  0
 22 41  1  0
 41 42  2  0
 42 43  1  0
 43 44  1  0
 44 45  1  0
 45 46  1  0
 46 47  2  0
 47 48  1  0
 47 49  1  0
 49 50  1  0
 50 51  1  0
 51 52  1  0
 51 53  2  0
 49 54  2  0
  1 23  1  6
 39 26  1  0
 54 41  1  0
 38  1  1  0
 46 42  1  0
 54  2  1  0
 10  5  1  0
 37 28  1  0
 17  9  1  0
M  END
$$$$
