
     RDKit          3D

 54 62  0  0  0  0  0  0  0  0999 V2000
  119.3901  166.0127  144.4976 C   0  0  2  0  0  0  0  0  0  0  0  0
  118.7166  167.2385  143.8615 C   0  0  2  0  0  0  0  0  0  0  0  0
  116.9343  167.0415  144.0539 S   0  0  0  0  0  0  0  0  0  0  0  0
  116.0507  166.8717  142.5162 C   0  0  0  0  0  0  0  0  0  0  0  0
  114.8160  166.0086  142.6250 C   0  0  1  0  0  0  0  0  0  0  0  0
  114.0168  166.5782  143.6965 N   0  0  0  0  0  0  0  0  0  0  0  0
  113.6181  167.9207  143.4474 C   0  0  0  0  0  0  0  0  0  0  0  0
  113.0956  168.2339  142.0994 C   0  0  0  0  0  0  0  0  0  0  0  0
  113.2738  167.1652  141.0865 C   0  0  0  0  0  0  0  0  0  0  0  0
  114.0926  166.1037  141.3305 C   0  0  0  0  0  0  0  0  0  0  0  0
  114.2333  165.1280  140.3632 C   0  0  0  0  0  0  0  0  0  0  0  0
  113.5746  165.1779  139.1440 C   0  0  0  0  0  0  0  0  0  0  0  0
  113.7188  164.1930  138.1717 O   0  0  0  0  0  0  0  0  0  0  0  0
  114.9037  163.4735  137.9770 C   0  0  0  0  0  0  0  0  0  0  0  0
  112.7470  166.2538  138.9014 C   0  0  0  0  0  0  0  0  0  0  0  0
  112.0628  166.3459  137.6864 O   0  0  0  0  0  0  0  0  0  0  0  0
  112.6090  167.2251  139.8683 C   0  0  0  0  0  0  0  0  0  0  0  0
  115.1071  164.6062  143.0107 C   0  0  0  0  0  0  0  0  0  0  0  0
  114.0683  163.8736  143.1532 O   0  0  0  0  0  0  0  0  0  0  0  0
  116.3915  164.2041  143.1812 O   0  0  0  0  0  0  0  0  0  0  0  0
  117.4083  163.9966  142.2574 C   0  0  0  0  0  0  0  0  0  0  0  0
  118.7091  164.6506  142.7244 C   0  0  2  0  0  0  0  0  0  0  0  0
  118.5690  164.9053  144.1233 N   0  0  0  0  0  0  0  0  0  0  0  0
  118.7042  163.7331  144.9338 C   0  0  1  0  0  0  0  0  0  0  0  0
  119.8203  162.9789  144.6771 O   0  0  0  0  0  0  0  0  0  0  0  0
  118.6664  164.1551  146.3890 C   0  0  2  0  0  0  0  0  0  0  0  0
  117.4130  164.8791  146.7415 C   0  0  0  0  0  0  0  0  0  0  0  0
  117.6091  166.2958  147.1117 C   0  0  0  0  0  0  0  0  0  0  0  0
  116.6876  166.9983  147.8584 C   0  0  0  0  0  0  0  0  0  0  0  0
  116.8802  168.3313  148.2167 C   0  0  0  0  0  0  0  0  0  0  0  0
  115.8478  169.0237  149.0201 C   0  0  0  0  0  0  0  0  0  0  0  0
  118.0312  168.9688  147.8108 C   0  0  0  0  0  0  0  0  0  0  0  0
  118.2128  170.2895  148.1711 O   0  0  0  0  0  0  0  0  0  0  0  0
  119.1646  170.7243  149.1112 C   0  0  0  0  0  0  0  0  0  0  0  0
  118.9786  168.3058  147.0637 C   0  0  0  0  0  0  0  0  0  0  0  0
  120.1345  168.9614  146.6636 O   0  0  0  0  0  0  0  0  0  0  0  0
  118.7622  166.9826  146.7209 C   0  0  0  0  0  0  0  0  0  0  0  0
  119.7175  166.1833  145.9203 C   0  0  1  0  0  0  0  0  0  0  0  0
  119.8846  164.9136  146.5992 N   0  0  0  0  0  0  0  0  0  0  0  0
  120.2265  165.0379  147.9751 C   0  0  0  0  0  0  0  0  0  0  0  0
  119.0399  165.8289  141.9093 C   0  0  0  0  0  0  0  0  0  0  0  0
  119.3559  165.6790  140.5835 C   0  0  0  0  0  0  0  0  0  0  0  0
  119.4567  164.6081  139.7158 O   0  0  0  0  0  0  0  0  0  0  0  0
  120.1532  165.0215  138.5522 C   0  0  0  0  0  0  0  0  0  0  0  0
  119.9553  166.4215  138.5148 O   0  0  0  0  0  0  0  0  0  0  0  0
  119.6704  166.8046  139.8182 C   0  0  0  0  0  0  0  0  0  0  0  0
  119.6754  168.0759  140.3517 C   0  0  0  0  0  0  0  0  0  0  0  0
  120.0143  169.2781  139.5222 C   0  0  0  0  0  0  0  0  0  0  0  0
  119.3564  168.2292  141.6910 C   0  0  0  0  0  0  0  0  0  0  0  0
  119.3592  169.4991  142.2409 O   0  0  0  0  0  0  0  0  0  0  0  0
  120.4810  170.0097  142.8471 C   0  0  0  0  0  0  0  0  0  0  0  0
  120.4072  171.2866  143.6363 C   0  0  0  0  0  0  0  0  0  0  0  0
  121.6062  169.4533  142.7791 O   0  0  0  0  0  0  0  0  0  0  0  0
  119.0532  167.1208  142.4179 C   0  0  0  0  0  0  0  0  0  0  0  0
  1  2  1  0
  2  3  1  6
  3  4  1  0
  4  5  1  0
  5  6  1  1
  6  7  1  0
  7  8  1  0
  8  9  1  0
  9 10  2  0
 10 11  1  0
 11 12  2  0
 12 13  1  0
 13 14  1  0
 12 15  1  0
 15 16  1  0
 15 17  2  0
  5 18  1  0
 18 19  2  0
 18 20  1  0
 20 21  1  0
 22 21  1  6
 22 23  1  0
 23 24  1  0
 24 25  1  6
 24 26  1  0
 26 27  1  6
 27 28  1  0
 28 29  2  0
 29 30  1  0
 30 31  1  0
 30 32  2  0
 32 33  1  0
 33 34  1  0
 32 35  1  0
 35 36  1  0
 35 37  2  0
 38 37  1  1
 38 39  1  0
 39 40  1  0
 22 41  1  0
 41 42  2  0
 42 43  1  0
 43 44  1  0
 44 45  1  0
 45 46  1  0
 46 47  2  0
 47 48  1  0
 47 49  1  0
 49 50  1  0
 50 51  1  0
 51 52  1  0
 51 53  2  0
 49 54  2  0
  1 23  1  1
 39 26  1  0
 54 41  1  0
 38  1  1  0
 46 42  1  0
 54  2  1  0
 10  5  1  0
 37 28  1  0
 17  9  1  0
M  END
$$$$
