
     RDKit          3D

 54 62  0  0  0  0  0  0  0  0999 V2000
  131.5536  163.5080  154.4116 C   0  0  2  0  0  0  0  0  0  0  0  0
  131.0644  162.4357  155.3973 C   0  0  2  0  0  0  0  0  0  0  0  0
  131.7901  160.8629  154.8951 S   0  0  0  0  0  0  0  0  0  0  0  0
  130.5993  159.6477  154.3668 C   0  0  0  0  0  0  0  0  0  0  0  0
  131.1281  158.7090  153.3082 C   0  0  1  0  0  0  0  0  0  0  0  0
  132.3473  158.1332  153.8499 N   0  0  0  0  0  0  0  0  0  0  0  0
  132.1371  157.3998  155.0504 C   0  0  0  0  0  0  0  0  0  0  0  0
  130.9870  156.4701  155.0847 C   0  0  0  0  0  0  0  0  0  0  0  0
  130.0419  156.5890  153.9478 C   0  0  0  0  0  0  0  0  0  0  0  0
  130.1033  157.6534  153.0992 C   0  0  0  0  0  0  0  0  0  0  0  0
  129.2065  157.7296  152.0517 C   0  0  0  0  0  0  0  0  0  0  0  0
  128.2373  156.7651  151.8204 C   0  0  0  0  0  0  0  0  0  0  0  0
  127.3353  156.8452  150.7640 O   0  0  0  0  0  0  0  0  0  0  0  0
  125.9462  156.8404  150.9380 C   0  0  0  0  0  0  0  0  0  0  0  0
  128.1789  155.6898  152.6815 C   0  0  0  0  0  0  0  0  0  0  0  0
  127.2184  154.6935  152.4872 O   0  0  0  0  0  0  0  0  0  0  0  0
  129.0749  155.6170  153.7252 C   0  0  0  0  0  0  0  0  0  0  0  0
  131.5043  159.3924  152.0467 C   0  0  0  0  0  0  0  0  0  0  0  0
  131.9982  158.6182  151.1563 O   0  0  0  0  0  0  0  0  0  0  0  0
  131.3127  160.7294  151.9184 O   0  0  0  0  0  0  0  0  0  0  0  0
  130.1451  161.4711  151.7891 C   0  0  0  0  0  0  0  0  0  0  0  0
  130.1593  162.6761  152.7302 C   0  0  2  0  0  0  0  0  0  0  0  0
  131.5161  162.8761  153.1309 N   0  0  0  0  0  0  0  0  0  0  0  0
  132.3276  163.4810  152.1186 C   0  0  1  0  0  0  0  0  0  0  0  0
  131.8029  164.6187  151.5611 O   0  0  0  0  0  0  0  0  0  0  0  0
  133.6963  163.7562  152.7088 C   0  0  2  0  0  0  0  0  0  0  0  0
  134.3549  162.5230  153.2234 C   0  0  0  0  0  0  0  0  0  0  0  0
  134.5531  162.5014  154.6871 C   0  0  0  0  0  0  0  0  0  0  0  0
  135.4901  161.6926  155.2937 C   0  0  0  0  0  0  0  0  0  0  0  0
  135.6836  161.6826  156.6739 C   0  0  0  0  0  0  0  0  0  0  0  0
  136.7083  160.7878  157.2569 C   0  0  0  0  0  0  0  0  0  0  0  0
  134.9120  162.5098  157.4590 C   0  0  0  0  0  0  0  0  0  0  0  0
  135.1117  162.4926  158.8253 O   0  0  0  0  0  0  0  0  0  0  0  0
  134.7798  163.5581  159.6818 C   0  0  0  0  0  0  0  0  0  0  0  0
  133.9642  163.3342  156.8958 C   0  0  0  0  0  0  0  0  0  0  0  0
  133.1955  164.1636  157.7002 O   0  0  0  0  0  0  0  0  0  0  0  0
  133.7919  163.3240  155.5226 C   0  0  0  0  0  0  0  0  0  0  0  0
  132.8000  164.1707  154.8214 C   0  0  1  0  0  0  0  0  0  0  0  0
  133.4833  164.7903  153.7033 N   0  0  0  0  0  0  0  0  0  0  0  0
  134.6839  165.4635  154.0647 C   0  0  0  0  0  0  0  0  0  0  0  0
  129.2047  162.5049  153.8355 C   0  0  0  0  0  0  0  0  0  0  0  0
  127.8583  162.4669  153.5792 C   0  0  0  0  0  0  0  0  0  0  0  0
  127.0745  162.5539  152.4442 O   0  0  0  0  0  0  0  0  0  0  0  0
  125.7314  162.7948  152.8287 C   0  0  0  0  0  0  0  0  0  0  0  0
  125.6594  162.2954  154.1500 O   0  0  0  0  0  0  0  0  0  0  0  0
  126.9595  162.3057  154.6364 C   0  0  0  0  0  0  0  0  0  0  0  0
  127.3798  162.1818  155.9437 C   0  0  0  0  0  0  0  0  0  0  0  0
  126.4074  162.0091  157.0719 C   0  0  0  0  0  0  0  0  0  0  0  0
  128.7398  162.2200  156.2044 C   0  0  0  0  0  0  0  0  0  0  0  0
  129.1765  162.0990  157.5120 O   0  0  0  0  0  0  0  0  0  0  0  0
  129.2030  163.1818  158.3566 C   0  0  0  0  0  0  0  0  0  0  0  0
  129.6632  163.0285  159.7790 C   0  0  0  0  0  0  0  0  0  0  0  0
  128.8529  164.3349  157.9985 O   0  0  0  0  0  0  0  0  0  0  0  0
  129.5974  162.3775  155.1611 C   0  0  0  0  0  0  0  0  0  0  0  0
  1  2  1  0
  2  3  1  6
  3  4  1  0
  4  5  1  0
  5  6  1  1
  6  7  1  0
  7  8  1  0
  8  9  1  0
  9 10  2  0
 10 11  1  0
 11 12  2  0
 12 13  1  0
 13 14  1  0
 12 15  1  0
 15 16  1  0
 15 17  2  0
  5 18  1  0
 18 19  2  0
 18 20  1  0
 20 21  1  0
 22 21  1  6
 22 23  1  0
 23 24  1  0
 24 25  1  1
 24 26  1  0
 26 27  1  1
 27 28  1  0
 28 29  2  0
 29 30  1  0
 30 31  1  0
 30 32  2  0
 32 33  1  0
 33 34  1  0
 32 35  1  0
 35 36  1  0
 35 37  2  0
 38 37  1  6
 38 39  1  0
 39 40  1  0
 22 41  1  0
 41 42  2  0
 42 43  1  0
 43 44  1  0
 44 45  1  0
 45 46  1  0
 46 47  2  0
 47 48  1  0
 47 49  1  0
 49 50  1  0
 50 51  1  0
 51 52  1  0
 51 53  2  0
 49 54  2  0
  1 23  1  6
 39 26  1  0
 54 41  1  0
 38  1  1  0
 46 42  1  0
 54  2  1  0
 10  5  1  0
 37 28  1  0
 17  9  1  0
M  END
$$$$
