
     RDKit          3D

 54 62  0  0  0  0  0  0  0  0999 V2000
  183.6397  179.4228  145.2610 C   0  0  2  0  0  0  0  0  0  0  0  0
  182.6848  178.2527  144.9783 C   0  0  2  0  0  0  0  0  0  0  0  0
  181.0873  178.6657  145.7064 S   0  0  0  0  0  0  0  0  0  0  0  0
  180.5905  177.5843  147.0323 C   0  0  0  0  0  0  0  0  0  0  0  0
  179.7495  178.2695  148.0832 C   0  0  1  0  0  0  0  0  0  0  0  0
  178.6340  178.8763  147.3770 N   0  0  0  0  0  0  0  0  0  0  0  0
  177.8256  177.9315  146.6861 C   0  0  0  0  0  0  0  0  0  0  0  0
  177.4551  176.6968  147.4117 C   0  0  0  0  0  0  0  0  0  0  0  0
  178.1704  176.4753  148.6921 C   0  0  0  0  0  0  0  0  0  0  0  0
  179.2643  177.2201  149.0168 C   0  0  0  0  0  0  0  0  0  0  0  0
  179.9042  176.9851  150.2180 C   0  0  0  0  0  0  0  0  0  0  0  0
  179.4822  176.0179  151.1176 C   0  0  0  0  0  0  0  0  0  0  0  0
  180.1294  175.7838  152.3269 O   0  0  0  0  0  0  0  0  0  0  0  0
  181.2569  176.5000  152.7459 C   0  0  0  0  0  0  0  0  0  0  0  0
  178.3749  175.2666  150.7849 C   0  0  0  0  0  0  0  0  0  0  0  0
  177.9136  174.2806  151.6611 O   0  0  0  0  0  0  0  0  0  0  0  0
  177.7391  175.5037  149.5862 C   0  0  0  0  0  0  0  0  0  0  0  0
  180.4581  179.3684  148.7834 C   0  0  0  0  0  0  0  0  0  0  0  0
  179.7444  179.9901  149.6439 O   0  0  0  0  0  0  0  0  0  0  0  0
  181.7542  179.6360  148.4850 O   0  0  0  0  0  0  0  0  0  0  0  0
  182.9148  178.9230  148.7589 C   0  0  0  0  0  0  0  0  0  0  0  0
  183.7970  178.8212  147.5142 C   0  0  2  0  0  0  0  0  0  0  0  0
  183.3461  179.8230  146.6005 N   0  0  0  0  0  0  0  0  0  0  0  0
  183.7587  181.1471  146.9551 C   0  0  1  0  0  0  0  0  0  0  0  0
  185.0974  181.2837  147.2189 O   0  0  0  0  0  0  0  0  0  0  0  0
  183.3322  182.0899  145.8477 C   0  0  2  0  0  0  0  0  0  0  0  0
  181.8625  182.0594  145.6058 C   0  0  0  0  0  0  0  0  0  0  0  0
  181.4716  181.5277  144.2842 C   0  0  0  0  0  0  0  0  0  0  0  0
  180.2495  181.8035  143.7092 C   0  0  0  0  0  0  0  0  0  0  0  0
  179.8874  181.3107  142.4569 C   0  0  0  0  0  0  0  0  0  0  0  0
  178.5577  181.6474  141.9008 C   0  0  0  0  0  0  0  0  0  0  0  0
  180.7817  180.5207  141.7698 C   0  0  0  0  0  0  0  0  0  0  0  0
  180.4135  180.0375  140.5296 O   0  0  0  0  0  0  0  0  0  0  0  0
  180.7941  178.7780  140.0319 C   0  0  0  0  0  0  0  0  0  0  0  0
  182.0135  180.2197  142.3059 C   0  0  0  0  0  0  0  0  0  0  0  0
  182.9048  179.4237  141.6003 O   0  0  0  0  0  0  0  0  0  0  0  0
  182.3476  180.7215  143.5516 C   0  0  0  0  0  0  0  0  0  0  0  0
  183.6446  180.4549  144.2144 C   0  0  1  0  0  0  0  0  0  0  0  0
  184.1432  181.7256  144.7016 N   0  0  0  0  0  0  0  0  0  0  0  0
  184.1857  182.7452  143.7096 C   0  0  0  0  0  0  0  0  0  0  0  0
  183.8108  177.4525  146.9769 C   0  0  0  0  0  0  0  0  0  0  0  0
  184.3734  176.4357  147.7047 C   0  0  0  0  0  0  0  0  0  0  0  0
  184.9945  176.3397  148.9355 O   0  0  0  0  0  0  0  0  0  0  0  0
  185.6770  175.0994  149.0120 C   0  0  0  0  0  0  0  0  0  0  0  0
  184.9975  174.2776  148.0829 O   0  0  0  0  0  0  0  0  0  0  0  0
  184.3831  175.1392  147.1846 C   0  0  0  0  0  0  0  0  0  0  0  0
  183.8421  174.8394  145.9524 C   0  0  0  0  0  0  0  0  0  0  0  0
  183.8572  173.4445  145.4026 C   0  0  0  0  0  0  0  0  0  0  0  0
  183.2733  175.8655  145.2158 C   0  0  0  0  0  0  0  0  0  0  0  0
  182.7281  175.5800  143.9763 O   0  0  0  0  0  0  0  0  0  0  0  0
  183.1875  176.1958  142.8377 C   0  0  0  0  0  0  0  0  0  0  0  0
  182.3921  176.1355  141.5641 C   0  0  0  0  0  0  0  0  0  0  0  0
  184.2724  176.8295  142.7954 O   0  0  0  0  0  0  0  0  0  0  0  0
  183.2741  177.1199  145.7403 C   0  0  0  0  0  0  0  0  0  0  0  0
  1  2  1  0
  2  3  1  1
  3  4  1  0
  4  5  1  0
  5  6  1  6
  6  7  1  0
  7  8  1  0
  8  9  1  0
  9 10  2  0
 10 11  1  0
 11 12  2  0
 12 13  1  0
 13 14  1  0
 12 15  1  0
 15 16  1  0
 15 17  2  0
  5 18  1  0
 18 19  2  0
 18 20  1  0
 20 21  1  0
 22 21  1  1
 22 23  1  0
 23 24  1  0
 24 25  1  6
 24 26  1  0
 26 27  1  6
 27 28  1  0
 28 29  2  0
 29 30  1  0
 30 31  1  0
 30 32  2  0
 32 33  1  0
 33 34  1  0
 32 35  1  0
 35 36  1  0
 35 37  2  0
 38 37  1  1
 38 39  1  0
 39 40  1  0
 22 41  1  0
 41 42  2  0
 42 43  1  0
 43 44  1  0
 44 45  1  0
 45 46  1  0
 46 47  2  0
 47 48  1  0
 47 49  1  0
 49 50  1  0
 50 51  1  0
 51 52  1  0
 51 53  2  0
 49 54  2  0
  1 23  1  1
 39 26  1  0
 54 41  1  0
 38  1  1  0
 46 42  1  0
 54  2  1  0
 10  5  1  0
 37 28  1  0
 17  9  1  0
M  END
$$$$
