
     RDKit          3D

 54 62  0  0  0  0  0  0  0  0999 V2000
  129.0452  183.7440  152.4956 C   0  0  2  0  0  0  0  0  0  0  0  0
  128.7851  182.2300  152.4650 C   0  0  2  0  0  0  0  0  0  0  0  0
  128.2244  181.8075  150.8037 S   0  0  0  0  0  0  0  0  0  0  0  0
  126.5530  181.1946  150.7337 C   0  0  0  0  0  0  0  0  0  0  0  0
  125.8405  181.5383  149.4470 C   0  0  1  0  0  0  0  0  0  0  0  0
  126.6865  181.0482  148.3722 N   0  0  0  0  0  0  0  0  0  0  0  0
  126.8967  179.6422  148.4192 C   0  0  0  0  0  0  0  0  0  0  0  0
  125.7150  178.7878  148.6680 C   0  0  0  0  0  0  0  0  0  0  0  0
  124.4867  179.5094  149.0807 C   0  0  0  0  0  0  0  0  0  0  0  0
  124.5403  180.8189  149.4540 C   0  0  0  0  0  0  0  0  0  0  0  0
  123.3755  181.4576  149.8320 C   0  0  0  0  0  0  0  0  0  0  0  0
  122.1425  180.8234  149.8498 C   0  0  0  0  0  0  0  0  0  0  0  0
  120.9710  181.4700  150.2313 O   0  0  0  0  0  0  0  0  0  0  0  0
  120.4845  181.4671  151.5440 C   0  0  0  0  0  0  0  0  0  0  0  0
  122.0929  179.4985  149.4713 C   0  0  0  0  0  0  0  0  0  0  0  0
  120.8719  178.8188  149.4738 O   0  0  0  0  0  0  0  0  0  0  0  0
  123.2565  178.8646  149.0949 C   0  0  0  0  0  0  0  0  0  0  0  0
  125.6808  182.9971  149.2313 C   0  0  0  0  0  0  0  0  0  0  0  0
  125.1211  183.3066  148.1236 O   0  0  0  0  0  0  0  0  0  0  0  0
  126.1155  183.8719  150.1727 O   0  0  0  0  0  0  0  0  0  0  0  0
  125.6222  184.1632  151.4384 C   0  0  0  0  0  0  0  0  0  0  0  0
  126.7516  184.1936  152.4686 C   0  0  2  0  0  0  0  0  0  0  0  0
  127.9756  184.3172  151.7419 N   0  0  0  0  0  0  0  0  0  0  0  0
  128.2108  185.6367  151.2391 C   0  0  1  0  0  0  0  0  0  0  0  0
  128.0814  186.6394  152.1655 O   0  0  0  0  0  0  0  0  0  0  0  0
  129.5884  185.6657  150.6077 C   0  0  2  0  0  0  0  0  0  0  0  0
  129.7358  184.6669  149.5122 C   0  0  0  0  0  0  0  0  0  0  0  0
  130.7072  183.5900  149.7938 C   0  0  0  0  0  0  0  0  0  0  0  0
  131.2937  182.8445  148.7936 C   0  0  0  0  0  0  0  0  0  0  0  0
  132.2189  181.8370  149.0608 C   0  0  0  0  0  0  0  0  0  0  0  0
  132.8088  181.0762  147.9366 C   0  0  0  0  0  0  0  0  0  0  0  0
  132.5592  181.5774  150.3696 C   0  0  0  0  0  0  0  0  0  0  0  0
  133.4769  180.5774  150.6238 O   0  0  0  0  0  0  0  0  0  0  0  0
  134.0622  180.3487  151.8824 C   0  0  0  0  0  0  0  0  0  0  0  0
  131.9981  182.2973  151.4002 C   0  0  0  0  0  0  0  0  0  0  0  0
  132.3525  182.0251  152.7140 O   0  0  0  0  0  0  0  0  0  0  0  0
  131.0814  183.2919  151.1072 C   0  0  0  0  0  0  0  0  0  0  0  0
  130.4215  184.1200  152.1422 C   0  0  1  0  0  0  0  0  0  0  0  0
  130.5176  185.4998  151.7089 N   0  0  0  0  0  0  0  0  0  0  0  0
  131.8406  185.9087  151.3806 C   0  0  0  0  0  0  0  0  0  0  0  0
  126.6823  183.0378  153.3750 C   0  0  0  0  0  0  0  0  0  0  0  0
  125.6262  182.9067  154.2396 C   0  0  0  0  0  0  0  0  0  0  0  0
  124.4905  183.6436  154.5173 O   0  0  0  0  0  0  0  0  0  0  0  0
  123.9416  183.1992  155.7466 C   0  0  0  0  0  0  0  0  0  0  0  0
  124.4245  181.8764  155.8781 O   0  0  0  0  0  0  0  0  0  0  0  0
  125.5705  181.8060  155.0980 C   0  0  0  0  0  0  0  0  0  0  0  0
  126.5489  180.8346  155.1091 C   0  0  0  0  0  0  0  0  0  0  0  0
  126.4804  179.6566  156.0341 C   0  0  0  0  0  0  0  0  0  0  0  0
  127.6167  180.9655  154.2362 C   0  0  0  0  0  0  0  0  0  0  0  0
  128.6074  179.9994  154.2375 O   0  0  0  0  0  0  0  0  0  0  0  0
  129.7646  180.1675  154.9581 C   0  0  0  0  0  0  0  0  0  0  0  0
  130.0044  181.4337  155.7312 C   0  0  0  0  0  0  0  0  0  0  0  0
  130.6677  179.2946  155.0117 O   0  0  0  0  0  0  0  0  0  0  0  0
  127.6515  182.0442  153.4092 C   0  0  0  0  0  0  0  0  0  0  0  0
  1  2  1  0
  2  3  1  6
  3  4  1  0
  4  5  1  0
  5  6  1  6
  6  7  1  0
  7  8  1  0
  8  9  1  0
  9 10  2  0
 10 11  1  0
 11 12  2  0
 12 13  1  0
 13 14  1  0
 12 15  1  0
 15 16  1  0
 15 17  2  0
  5 18  1  0
 18 19  2  0
 18 20  1  0
 20 21  1  0
 22 21  1  6
 22 23  1  0
 23 24  1  0
 24 25  1  1
 24 26  1  0
 26 27  1  6
 27 28  1  0
 28 29  2  0
 29 30  1  0
 30 31  1  0
 30 32  2  0
 32 33  1  0
 33 34  1  0
 32 35  1  0
 35 36  1  0
 35 37  2  0
 38 37  1  6
 38 39  1  0
 39 40  1  0
 22 41  1  0
 41 42  2  0
 42 43  1  0
 43 44  1  0
 44 45  1  0
 45 46  1  0
 46 47  2  0
 47 48  1  0
 47 49  1  0
 49 50  1  0
 50 51  1  0
 51 52  1  0
 51 53  2  0
 49 54  2  0
  1 23  1  6
 39 26  1  0
 54 41  1  0
 38  1  1  0
 46 42  1  0
 54  2  1  0
 10  5  1  0
 37 28  1  0
 17  9  1  0
M  END
$$$$
