
     RDKit          3D

 54 62  0  0  0  0  0  0  0  0999 V2000
  185.4402  145.1566  126.5141 C   0  0  2  0  0  0  0  0  0  0  0  0
  185.0141  146.3141  127.4302 C   0  0  2  0  0  0  0  0  0  0  0  0
  183.8298  147.3228  126.5178 S   0  0  0  0  0  0  0  0  0  0  0  0
  184.3935  148.9784  126.1781 C   0  0  0  0  0  0  0  0  0  0  0  0
  183.8508  149.5448  124.8873 C   0  0  1  0  0  0  0  0  0  0  0  0
  182.4049  149.4268  124.9695 N   0  0  0  0  0  0  0  0  0  0  0  0
  181.8434  150.1481  126.0594 C   0  0  0  0  0  0  0  0  0  0  0  0
  182.3303  151.5269  126.2830 C   0  0  0  0  0  0  0  0  0  0  0  0
  183.5240  151.9135  125.4920 C   0  0  0  0  0  0  0  0  0  0  0  0
  184.2528  150.9741  124.8263 C   0  0  0  0  0  0  0  0  0  0  0  0
  185.3580  151.3722  124.1000 C   0  0  0  0  0  0  0  0  0  0  0  0
  185.7650  152.6951  124.0154 C   0  0  0  0  0  0  0  0  0  0  0  0
  186.8791  153.0926  123.2828 O   0  0  0  0  0  0  0  0  0  0  0  0
  187.6283  152.2167  122.4881 C   0  0  0  0  0  0  0  0  0  0  0  0
  185.0246  153.6423  124.6905 C   0  0  0  0  0  0  0  0  0  0  0  0
  185.3974  154.9879  124.6337 O   0  0  0  0  0  0  0  0  0  0  0  0
  183.9229  153.2418  125.4139 C   0  0  0  0  0  0  0  0  0  0  0  0
  184.2720  148.7850  123.6851 C   0  0  0  0  0  0  0  0  0  0  0  0
  183.7826  149.2236  122.5877 O   0  0  0  0  0  0  0  0  0  0  0  0
  185.1078  147.7242  123.8137 O   0  0  0  0  0  0  0  0  0  0  0  0
  186.4590  147.6660  124.1319 C   0  0  0  0  0  0  0  0  0  0  0  0
  186.7218  146.5998  125.1958 C   0  0  2  0  0  0  0  0  0  0  0  0
  185.5785  145.7432  125.2189 N   0  0  0  0  0  0  0  0  0  0  0  0
  185.5262  144.8303  124.1175 C   0  0  1  0  0  0  0  0  0  0  0  0
  186.6768  144.1151  123.9049 O   0  0  0  0  0  0  0  0  0  0  0  0
  184.3485  143.8996  124.3276 C   0  0  2  0  0  0  0  0  0  0  0  0
  183.0564  144.6314  124.4474 C   0  0  0  0  0  0  0  0  0  0  0  0
  182.4163  144.5279  125.7747 C   0  0  0  0  0  0  0  0  0  0  0  0
  181.0694  144.7516  125.9645 C   0  0  0  0  0  0  0  0  0  0  0  0
  180.4653  144.6417  127.2157 C   0  0  0  0  0  0  0  0  0  0  0  0
  179.0131  144.8966  127.3457 C   0  0  0  0  0  0  0  0  0  0  0  0
  181.2409  144.2974  128.3001 C   0  0  0  0  0  0  0  0  0  0  0  0
  180.6328  144.1909  129.5354 O   0  0  0  0  0  0  0  0  0  0  0  0
  181.1083  143.3750  130.5780 C   0  0  0  0  0  0  0  0  0  0  0  0
  182.5902  144.0649  128.1567 C   0  0  0  0  0  0  0  0  0  0  0  0
  183.3583  143.7169  129.2589 O   0  0  0  0  0  0  0  0  0  0  0  0
  183.1651  144.1815  126.9032 C   0  0  0  0  0  0  0  0  0  0  0  0
  184.6052  143.9540  126.6448 C   0  0  1  0  0  0  0  0  0  0  0  0
  184.6987  143.0940  125.4818 N   0  0  0  0  0  0  0  0  0  0  0  0
  183.9217  141.9058  125.5813 C   0  0  0  0  0  0  0  0  0  0  0  0
  187.0685  147.2069  126.4895 C   0  0  0  0  0  0  0  0  0  0  0  0
  188.2345  147.9156  126.6240 C   0  0  0  0  0  0  0  0  0  0  0  0
  189.2802  148.2493  125.7843 O   0  0  0  0  0  0  0  0  0  0  0  0
  190.3719  148.7045  126.5659 C   0  0  0  0  0  0  0  0  0  0  0  0
  189.7704  149.1521  127.7652 O   0  0  0  0  0  0  0  0  0  0  0  0
  188.5556  148.4869  127.8577 C   0  0  0  0  0  0  0  0  0  0  0  0
  187.7347  148.3636  128.9586 C   0  0  0  0  0  0  0  0  0  0  0  0
  188.0880  148.9805  130.2789 C   0  0  0  0  0  0  0  0  0  0  0  0
  186.5563  147.6479  128.8245 C   0  0  0  0  0  0  0  0  0  0  0  0
  185.7233  147.5141  129.9214 O   0  0  0  0  0  0  0  0  0  0  0  0
  184.5944  148.2848  130.0561 C   0  0  0  0  0  0  0  0  0  0  0  0
  183.7344  148.1699  131.2832 C   0  0  0  0  0  0  0  0  0  0  0  0
  184.2239  149.1103  129.1832 O   0  0  0  0  0  0  0  0  0  0  0  0
  186.2627  147.1002  127.6151 C   0  0  0  0  0  0  0  0  0  0  0  0
  1  2  1  0
  2  3  1  6
  3  4  1  0
  4  5  1  0
  5  6  1  1
  6  7  1  0
  7  8  1  0
  8  9  1  0
  9 10  2  0
 10 11  1  0
 11 12  2  0
 12 13  1  0
 13 14  1  0
 12 15  1  0
 15 16  1  0
 15 17  2  0
  5 18  1  0
 18 19  2  0
 18 20  1  0
 20 21  1  0
 22 21  1  6
 22 23  1  0
 23 24  1  0
 24 25  1  1
 24 26  1  0
 26 27  1  1
 27 28  1  0
 28 29  2  0
 29 30  1  0
 30 31  1  0
 30 32  2  0
 32 33  1  0
 33 34  1  0
 32 35  1  0
 35 36  1  0
 35 37  2  0
 38 37  1  6
 38 39  1  0
 39 40  1  0
 22 41  1  0
 41 42  2  0
 42 43  1  0
 43 44  1  0
 44 45  1  0
 45 46  1  0
 46 47  2  0
 47 48  1  0
 47 49  1  0
 49 50  1  0
 50 51  1  0
 51 52  1  0
 51 53  2  0
 49 54  2  0
  1 23  1  6
 39 26  1  0
 54 41  1  0
 38  1  1  0
 46 42  1  0
 54  2  1  0
 10  5  1  0
 37 28  1  0
 17  9  1  0
M  END
$$$$
