
     RDKit          3D

 54 62  0  0  0  0  0  0  0  0999 V2000
  167.9980  144.8575  128.3219 C   0  0  2  0  0  0  0  0  0  0  0  0
  167.5885  146.3094  128.6134 C   0  0  2  0  0  0  0  0  0  0  0  0
  166.8148  146.9666  127.1227 S   0  0  0  0  0  0  0  0  0  0  0  0
  167.7102  148.3103  126.3700 C   0  0  0  0  0  0  0  0  0  0  0  0
  167.5596  148.3658  124.8681 C   0  0  1  0  0  0  0  0  0  0  0  0
  166.1310  148.3978  124.6051 N   0  0  0  0  0  0  0  0  0  0  0  0
  165.4801  149.5276  125.1739 C   0  0  0  0  0  0  0  0  0  0  0  0
  166.1345  150.8434  125.0050 C   0  0  0  0  0  0  0  0  0  0  0  0
  167.5174  150.7996  124.4704 C   0  0  0  0  0  0  0  0  0  0  0  0
  168.2016  149.6231  124.4040 C   0  0  0  0  0  0  0  0  0  0  0  0
  169.4875  149.6217  123.9001 C   0  0  0  0  0  0  0  0  0  0  0  0
  170.1212  150.7718  123.4544 C   0  0  0  0  0  0  0  0  0  0  0  0
  171.4170  150.7666  122.9474 O   0  0  0  0  0  0  0  0  0  0  0  0
  171.7062  150.7021  121.5792 C   0  0  0  0  0  0  0  0  0  0  0  0
  169.4252  151.9599  123.5235 C   0  0  0  0  0  0  0  0  0  0  0  0
  170.0240  153.1442  123.0857 O   0  0  0  0  0  0  0  0  0  0  0  0
  168.1429  151.9577  124.0266 C   0  0  0  0  0  0  0  0  0  0  0  0
  168.0929  147.1673  124.1759 C   0  0  0  0  0  0  0  0  0  0  0  0
  167.9308  147.1771  122.9071 O   0  0  0  0  0  0  0  0  0  0  0  0
  168.6899  146.1819  124.8922 O   0  0  0  0  0  0  0  0  0  0  0  0
  169.9121  146.1520  125.5522 C   0  0  0  0  0  0  0  0  0  0  0  0
  169.7571  145.5702  126.9577 C   0  0  2  0  0  0  0  0  0  0  0  0
  168.5071  144.8789  126.9873 N   0  0  0  0  0  0  0  0  0  0  0  0
  168.5373  143.6147  126.3163 C   0  0  1  0  0  0  0  0  0  0  0  0
  169.5685  142.7895  126.6853 O   0  0  0  0  0  0  0  0  0  0  0  0
  167.2017  142.9312  126.5310 C   0  0  2  0  0  0  0  0  0  0  0  0
  166.0569  143.7458  126.0359 C   0  0  0  0  0  0  0  0  0  0  0  0
  165.1400  144.2178  127.0937 C   0  0  0  0  0  0  0  0  0  0  0  0
  163.8415  144.5979  126.8300 C   0  0  0  0  0  0  0  0  0  0  0  0
  162.9745  145.0314  127.8313 C   0  0  0  0  0  0  0  0  0  0  0  0
  161.5927  145.4246  127.4752 C   0  0  0  0  0  0  0  0  0  0  0  0
  163.4308  145.0816  129.1295 C   0  0  0  0  0  0  0  0  0  0  0  0
  162.5639  145.5123  130.1144 O   0  0  0  0  0  0  0  0  0  0  0  0
  162.9776  146.0090  131.3638 C   0  0  0  0  0  0  0  0  0  0  0  0
  164.7202  144.7114  129.4386 C   0  0  0  0  0  0  0  0  0  0  0  0
  165.1649  144.7657  130.7520 O   0  0  0  0  0  0  0  0  0  0  0  0
  165.5608  144.2853  128.4251 C   0  0  0  0  0  0  0  0  0  0  0  0
  166.9630  143.8678  128.6532 C   0  0  1  0  0  0  0  0  0  0  0  0
  167.1555  142.6172  127.9463 N   0  0  0  0  0  0  0  0  0  0  0  0
  166.1855  141.6242  128.2597 C   0  0  0  0  0  0  0  0  0  0  0  0
  169.9172  146.6070  127.9881 C   0  0  0  0  0  0  0  0  0  0  0  0
  171.1304  147.2226  128.1589 C   0  0  0  0  0  0  0  0  0  0  0  0
  172.3724  147.1222  127.5611 O   0  0  0  0  0  0  0  0  0  0  0  0
  173.3330  147.7639  128.3830 C   0  0  0  0  0  0  0  0  0  0  0  0
  172.5739  148.6883  129.1377 O   0  0  0  0  0  0  0  0  0  0  0  0
  171.2727  148.2050  129.1418 C   0  0  0  0  0  0  0  0  0  0  0  0
  170.2269  148.5838  129.9566 C   0  0  0  0  0  0  0  0  0  0  0  0
  170.3894  149.6395  131.0090 C   0  0  0  0  0  0  0  0  0  0  0  0
  169.0005  147.9629  129.7854 C   0  0  0  0  0  0  0  0  0  0  0  0
  167.9422  148.3313  130.5974 O   0  0  0  0  0  0  0  0  0  0  0  0
  167.8380  147.8664  131.8856 C   0  0  0  0  0  0  0  0  0  0  0  0
  166.4991  147.7934  132.5642 C   0  0  0  0  0  0  0  0  0  0  0  0
  168.8310  147.4845  132.5554 O   0  0  0  0  0  0  0  0  0  0  0  0
  168.8835  147.0095  128.8231 C   0  0  0  0  0  0  0  0  0  0  0  0
  1  2  1  0
  2  3  1  6
  3  4  1  0
  4  5  1  0
  5  6  1  1
  6  7  1  0
  7  8  1  0
  8  9  1  0
  9 10  2  0
 10 11  1  0
 11 12  2  0
 12 13  1  0
 13 14  1  0
 12 15  1  0
 15 16  1  0
 15 17  2  0
  5 18  1  0
 18 19  2  0
 18 20  1  0
 20 21  1  0
 22 21  1  6
 22 23  1  0
 23 24  1  0
 24 25  1  1
 24 26  1  0
 26 27  1  1
 27 28  1  0
 28 29  2  0
 29 30  1  0
 30 31  1  0
 30 32  2  0
 32 33  1  0
 33 34  1  0
 32 35  1  0
 35 36  1  0
 35 37  2  0
 38 37  1  6
 38 39  1  0
 39 40  1  0
 22 41  1  0
 41 42  2  0
 42 43  1  0
 43 44  1  0
 44 45  1  0
 45 46  1  0
 46 47  2  0
 47 48  1  0
 47 49  1  0
 49 50  1  0
 50 51  1  0
 51 52  1  0
 51 53  2  0
 49 54  2  0
  1 23  1  6
 39 26  1  0
 54 41  1  0
 38  1  1  0
 46 42  1  0
 54  2  1  0
 10  5  1  0
 37 28  1  0
 17  9  1  0
M  END
$$$$
