
     RDKit          3D

 54 62  0  0  0  0  0  0  0  0999 V2000
  131.9752  137.4354  133.5596 C   0  0  2  0  0  0  0  0  0  0  0  0
  131.0122  138.2784  132.7094 C   0  0  2  0  0  0  0  0  0  0  0  0
  129.9075  137.1413  131.8494 S   0  0  0  0  0  0  0  0  0  0  0  0
  130.0762  137.1645  130.0760 C   0  0  0  0  0  0  0  0  0  0  0  0
  129.7883  135.8309  129.4277 C   0  0  1  0  0  0  0  0  0  0  0  0
  128.4657  135.4368  129.8823 N   0  0  0  0  0  0  0  0  0  0  0  0
  127.4466  136.3572  129.5113 C   0  0  0  0  0  0  0  0  0  0  0  0
  127.4601  136.8595  128.1200 C   0  0  0  0  0  0  0  0  0  0  0  0
  128.6782  136.5319  127.3397 C   0  0  0  0  0  0  0  0  0  0  0  0
  129.7903  136.0430  127.9569 C   0  0  0  0  0  0  0  0  0  0  0  0
  130.9056  135.7493  127.1971 C   0  0  0  0  0  0  0  0  0  0  0  0
  130.9476  135.9301  125.8229 C   0  0  0  0  0  0  0  0  0  0  0  0
  132.0731  135.6332  125.0605 O   0  0  0  0  0  0  0  0  0  0  0  0
  133.3660  136.0426  125.4078 C   0  0  0  0  0  0  0  0  0  0  0  0
  129.8201  136.4250  125.2025 C   0  0  0  0  0  0  0  0  0  0  0  0
  129.8167  136.6234  123.8193 O   0  0  0  0  0  0  0  0  0  0  0  0
  128.7095  136.7168  125.9634 C   0  0  0  0  0  0  0  0  0  0  0  0
  130.7203  134.7562  129.8474 C   0  0  0  0  0  0  0  0  0  0  0  0
  130.4614  133.6093  129.3437 O   0  0  0  0  0  0  0  0  0  0  0  0
  131.7395  135.0381  130.6973 O   0  0  0  0  0  0  0  0  0  0  0  0
  132.9093  135.7622  130.5037 C   0  0  0  0  0  0  0  0  0  0  0  0
  133.1383  136.7433  131.6539 C   0  0  2  0  0  0  0  0  0  0  0  0
  132.3101  136.3164  132.7371 N   0  0  0  0  0  0  0  0  0  0  0  0
  132.8190  135.1708  133.4284 C   0  0  1  0  0  0  0  0  0  0  0  0
  134.1310  135.2656  133.8156 O   0  0  0  0  0  0  0  0  0  0  0  0
  131.9263  134.9020  134.6234 C   0  0  2  0  0  0  0  0  0  0  0  0
  130.5056  134.6764  134.2359 C   0  0  0  0  0  0  0  0  0  0  0  0
  129.5694  135.7140  134.7148 C   0  0  0  0  0  0  0  0  0  0  0  0
  128.2154  135.4866  134.8387 C   0  0  0  0  0  0  0  0  0  0  0  0
  127.3356  136.4632  135.3021 C   0  0  0  0  0  0  0  0  0  0  0  0
  125.8932  136.1490  135.4094 C   0  0  0  0  0  0  0  0  0  0  0  0
  127.8364  137.6982  135.6484 C   0  0  0  0  0  0  0  0  0  0  0  0
  126.9565  138.6589  136.1066 O   0  0  0  0  0  0  0  0  0  0  0  0
  126.9585  139.1649  137.4192 C   0  0  0  0  0  0  0  0  0  0  0  0
  129.1818  137.9692  135.5405 C   0  0  0  0  0  0  0  0  0  0  0  0
  129.6716  139.2183  135.8952 O   0  0  0  0  0  0  0  0  0  0  0  0
  130.0335  136.9819  135.0769 C   0  0  0  0  0  0  0  0  0  0  0  0
  131.4937  137.1738  134.9235 C   0  0  1  0  0  0  0  0  0  0  0  0
  132.1399  136.0218  135.5202 N   0  0  0  0  0  0  0  0  0  0  0  0
  131.7167  135.7506  136.8517 C   0  0  0  0  0  0  0  0  0  0  0  0
  132.9285  138.1335  131.2230 C   0  0  0  0  0  0  0  0  0  0  0  0
  133.7731  138.7015  130.3043 C   0  0  0  0  0  0  0  0  0  0  0  0
  134.8829  138.2756  129.5995 O   0  0  0  0  0  0  0  0  0  0  0  0
  135.5446  139.4050  129.0549 C   0  0  0  0  0  0  0  0  0  0  0  0
  134.5316  140.3887  128.9745 O   0  0  0  0  0  0  0  0  0  0  0  0
  133.5664  140.0235  129.9028 C   0  0  0  0  0  0  0  0  0  0  0  0
  132.5331  140.7881  130.4014 C   0  0  0  0  0  0  0  0  0  0  0  0
  132.3192  142.2065  129.9643 C   0  0  0  0  0  0  0  0  0  0  0  0
  131.6789  140.2158  131.3297 C   0  0  0  0  0  0  0  0  0  0  0  0
  130.6384  140.9718  131.8405 O   0  0  0  0  0  0  0  0  0  0  0  0
  129.3468  140.7869  131.4112 C   0  0  0  0  0  0  0  0  0  0  0  0
  128.2449  141.6847  131.8996 C   0  0  0  0  0  0  0  0  0  0  0  0
  129.0191  139.8793  130.6055 O   0  0  0  0  0  0  0  0  0  0  0  0
  131.8976  138.9279  131.7067 C   0  0  0  0  0  0  0  0  0  0  0  0
  1  2  1  0
  2  3  1  6
  3  4  1  0
  4  5  1  0
  5  6  1  1
  6  7  1  0
  7  8  1  0
  8  9  1  0
  9 10  2  0
 10 11  1  0
 11 12  2  0
 12 13  1  0
 13 14  1  0
 12 15  1  0
 15 16  1  0
 15 17  2  0
  5 18  1  0
 18 19  2  0
 18 20  1  0
 20 21  1  0
 22 21  1  6
 22 23  1  0
 23 24  1  0
 24 25  1  1
 24 26  1  0
 26 27  1  6
 27 28  1  0
 28 29  2  0
 29 30  1  0
 30 31  1  0
 30 32  2  0
 32 33  1  0
 33 34  1  0
 32 35  1  0
 35 36  1  0
 35 37  2  0
 38 37  1  6
 38 39  1  0
 39 40  1  0
 22 41  1  0
 41 42  2  0
 42 43  1  0
 43 44  1  0
 44 45  1  0
 45 46  1  0
 46 47  2  0
 47 48  1  0
 47 49  1  0
 49 50  1  0
 50 51  1  0
 51 52  1  0
 51 53  2  0
 49 54  2  0
  1 23  1  6
 39 26  1  0
 54 41  1  0
 38  1  1  0
 46 42  1  0
 54  2  1  0
 10  5  1  0
 37 28  1  0
 17  9  1  0
M  END
$$$$
