
     RDKit          3D

 54 62  0  0  0  0  0  0  0  0999 V2000
  129.4198  143.4280  135.9955 C   0  0  2  0  0  0  0  0  0  0  0  0
  127.9551  143.8923  136.0035 C   0  0  2  0  0  0  0  0  0  0  0  0
  127.6855  144.8690  134.5115 S   0  0  0  0  0  0  0  0  0  0  0  0
  127.2975  146.5799  134.8220 C   0  0  0  0  0  0  0  0  0  0  0  0
  127.7893  147.5131  133.7410 C   0  0  1  0  0  0  0  0  0  0  0  0
  127.2440  147.0092  132.4920 N   0  0  0  0  0  0  0  0  0  0  0  0
  125.8219  146.9877  132.4680 C   0  0  0  0  0  0  0  0  0  0  0  0
  125.1168  148.1867  132.9714 C   0  0  0  0  0  0  0  0  0  0  0  0
  125.9714  149.1785  133.6685 C   0  0  0  0  0  0  0  0  0  0  0  0
  127.2444  148.8632  134.0387 C   0  0  0  0  0  0  0  0  0  0  0  0
  128.0102  149.8129  134.6861 C   0  0  0  0  0  0  0  0  0  0  0  0
  127.5405  151.0841  134.9799 C   0  0  0  0  0  0  0  0  0  0  0  0
  128.3149  152.0385  135.6324 O   0  0  0  0  0  0  0  0  0  0  0  0
  129.5675  151.7595  136.1918 C   0  0  0  0  0  0  0  0  0  0  0  0
  126.2520  151.3988  134.6036 C   0  0  0  0  0  0  0  0  0  0  0  0
  125.7363  152.6681  134.8791 O   0  0  0  0  0  0  0  0  0  0  0  0
  125.4910  150.4492  133.9581 C   0  0  0  0  0  0  0  0  0  0  0  0
  129.2648  147.5174  133.5900 C   0  0  0  0  0  0  0  0  0  0  0  0
  129.6948  148.2671  132.6470 O   0  0  0  0  0  0  0  0  0  0  0  0
  130.0319  146.7644  134.4178 O   0  0  0  0  0  0  0  0  0  0  0  0
  130.3260  146.9119  135.7676 C   0  0  0  0  0  0  0  0  0  0  0  0
  130.1628  145.5841  136.5080 C   0  0  2  0  0  0  0  0  0  0  0  0
  130.1604  144.5528  135.5191 N   0  0  0  0  0  0  0  0  0  0  0  0
  131.4602  144.2607  134.9952 C   0  0  1  0  0  0  0  0  0  0  0  0
  132.4275  144.0376  135.9412 O   0  0  0  0  0  0  0  0  0  0  0  0
  131.3399  143.0725  134.0620 C   0  0  2  0  0  0  0  0  0  0  0  0
  130.3819  143.3162  132.9474 C   0  0  0  0  0  0  0  0  0  0  0  0
  129.1768  142.4624  132.9798 C   0  0  0  0  0  0  0  0  0  0  0  0
  128.4085  142.2264  131.8599 C   0  0  0  0  0  0  0  0  0  0  0  0
  127.2787  141.4109  131.8901 C   0  0  0  0  0  0  0  0  0  0  0  0
  126.5005  141.2022  130.6486 C   0  0  0  0  0  0  0  0  0  0  0  0
  126.9173  140.8201  133.0802 C   0  0  0  0  0  0  0  0  0  0  0  0
  125.7965  140.0138  133.0997 O   0  0  0  0  0  0  0  0  0  0  0  0
  125.1538  139.5890  134.2767 C   0  0  0  0  0  0  0  0  0  0  0  0
  127.6555  141.0281  134.2235 C   0  0  0  0  0  0  0  0  0  0  0  0
  127.2796  140.4241  135.4151 O   0  0  0  0  0  0  0  0  0  0  0  0
  128.7726  141.8430  134.1660 C   0  0  0  0  0  0  0  0  0  0  0  0
  129.6306  142.1304  135.3381 C   0  0  1  0  0  0  0  0  0  0  0  0
  131.0049  141.9483  134.9150 N   0  0  0  0  0  0  0  0  0  0  0  0
  131.2540  140.6919  134.2949 C   0  0  0  0  0  0  0  0  0  0  0  0
  128.9851  145.6021  137.3885 C   0  0  0  0  0  0  0  0  0  0  0  0
  128.9520  146.4411  138.4724 C   0  0  0  0  0  0  0  0  0  0  0  0
  129.8159  147.3723  139.0169 O   0  0  0  0  0  0  0  0  0  0  0  0
  129.3901  147.6819  140.3332 C   0  0  0  0  0  0  0  0  0  0  0  0
  128.0113  147.3668  140.3294 O   0  0  0  0  0  0  0  0  0  0  0  0
  127.8294  146.4493  139.3038 C   0  0  0  0  0  0  0  0  0  0  0  0
  126.7402  145.6359  139.0731 C   0  0  0  0  0  0  0  0  0  0  0  0
  125.5396  145.6519  139.9712 C   0  0  0  0  0  0  0  0  0  0  0  0
  126.7721  144.7876  137.9784 C   0  0  0  0  0  0  0  0  0  0  0  0
  125.6870  143.9639  137.7354 O   0  0  0  0  0  0  0  0  0  0  0  0
  125.7950  142.5979  137.8304 C   0  0  0  0  0  0  0  0  0  0  0  0
  127.0497  141.9675  138.3660 C   0  0  0  0  0  0  0  0  0  0  0  0
  124.8743  141.8151  137.4839 O   0  0  0  0  0  0  0  0  0  0  0  0
  127.8741  144.7954  137.1820 C   0  0  0  0  0  0  0  0  0  0  0  0
  1  2  1  0
  2  3  1  6
  3  4  1  0
  4  5  1  0
  5  6  1  6
  6  7  1  0
  7  8  1  0
  8  9  1  0
  9 10  2  0
 10 11  1  0
 11 12  2  0
 12 13  1  0
 13 14  1  0
 12 15  1  0
 15 16  1  0
 15 17  2  0
  5 18  1  0
 18 19  2  0
 18 20  1  0
 20 21  1  0
 22 21  1  6
 22 23  1  0
 23 24  1  0
 24 25  1  1
 24 26  1  0
 26 27  1  6
 27 28  1  0
 28 29  2  0
 29 30  1  0
 30 31  1  0
 30 32  2  0
 32 33  1  0
 33 34  1  0
 32 35  1  0
 35 36  1  0
 35 37  2  0
 38 37  1  6
 38 39  1  0
 39 40  1  0
 22 41  1  0
 41 42  2  0
 42 43  1  0
 43 44  1  0
 44 45  1  0
 45 46  1  0
 46 47  2  0
 47 48  1  0
 47 49  1  0
 49 50  1  0
 50 51  1  0
 51 52  1  0
 51 53  2  0
 49 54  2  0
  1 23  1  6
 39 26  1  0
 54 41  1  0
 38  1  1  0
 46 42  1  0
 54  2  1  0
 10  5  1  0
 37 28  1  0
 17  9  1  0
M  END
$$$$
