
     RDKit          3D

 54 62  0  0  0  0  0  0  0  0999 V2000
  202.5999  129.8875  136.1069 C   0  0  2  0  0  0  0  0  0  0  0  0
  201.8111  131.0386  135.4637 C   0  0  2  0  0  0  0  0  0  0  0  0
  202.4911  131.3102  133.8155 S   0  0  0  0  0  0  0  0  0  0  0  0
  203.2606  132.9024  133.5992 C   0  0  0  0  0  0  0  0  0  0  0  0
  204.4102  132.8858  132.6195 C   0  0  1  0  0  0  0  0  0  0  0  0
  203.8850  132.3202  131.3884 N   0  0  0  0  0  0  0  0  0  0  0  0
  202.8183  133.0788  130.8318 C   0  0  0  0  0  0  0  0  0  0  0  0
  202.9884  134.5471  130.7737 C   0  0  0  0  0  0  0  0  0  0  0  0
  204.1510  135.0806  131.5245 C   0  0  0  0  0  0  0  0  0  0  0  0
  204.8312  134.2948  132.4057 C   0  0  0  0  0  0  0  0  0  0  0  0
  205.9088  134.8267  133.0864 C   0  0  0  0  0  0  0  0  0  0  0  0
  206.3353  136.1348  132.9139 C   0  0  0  0  0  0  0  0  0  0  0  0
  207.4215  136.6673  133.6015 O   0  0  0  0  0  0  0  0  0  0  0  0
  208.1024  135.9795  134.6130 C   0  0  0  0  0  0  0  0  0  0  0  0
  205.6442  136.9263  132.0212 C   0  0  0  0  0  0  0  0  0  0  0  0
  206.0383  138.2510  131.8151 O   0  0  0  0  0  0  0  0  0  0  0  0
  204.5699  136.3926  131.3440 C   0  0  0  0  0  0  0  0  0  0  0  0
  205.5344  132.0155  133.0421 C   0  0  0  0  0  0  0  0  0  0  0  0
  206.4961  131.9533  132.2010 O   0  0  0  0  0  0  0  0  0  0  0  0
  205.4791  131.3696  134.2338 O   0  0  0  0  0  0  0  0  0  0  0  0
  205.5698  131.8524  135.5334 C   0  0  0  0  0  0  0  0  0  0  0  0
  204.4650  131.2630  136.4109 C   0  0  2  0  0  0  0  0  0  0  0  0
  203.9584  130.1147  135.7281 N   0  0  0  0  0  0  0  0  0  0  0  0
  204.8217  128.9755  135.8080 C   0  0  1  0  0  0  0  0  0  0  0  0
  205.2392  128.6548  137.0742 O   0  0  0  0  0  0  0  0  0  0  0  0
  204.1165  127.7992  135.1629 C   0  0  2  0  0  0  0  0  0  0  0  0
  203.7471  128.0628  133.7439 C   0  0  0  0  0  0  0  0  0  0  0  0
  202.2926  128.1139  133.4904 C   0  0  0  0  0  0  0  0  0  0  0  0
  201.7542  127.9190  132.2365 C   0  0  0  0  0  0  0  0  0  0  0  0
  200.3808  127.9557  132.0018 C   0  0  0  0  0  0  0  0  0  0  0  0
  199.8728  127.7378  130.6288 C   0  0  0  0  0  0  0  0  0  0  0  0
  199.5322  128.1949  133.0594 C   0  0  0  0  0  0  0  0  0  0  0  0
  198.1732  128.2291  132.8165 O   0  0  0  0  0  0  0  0  0  0  0  0
  197.2312  127.4440  133.5059 C   0  0  0  0  0  0  0  0  0  0  0  0
  200.0262  128.3952  134.3287 C   0  0  0  0  0  0  0  0  0  0  0  0
  199.1580  128.6333  135.3848 O   0  0  0  0  0  0  0  0  0  0  0  0
  201.3942  128.3541  134.5341 C   0  0  0  0  0  0  0  0  0  0  0  0
  202.0240  128.5581  135.8586 C   0  0  1  0  0  0  0  0  0  0  0  0
  202.9973  127.4986  136.0352 N   0  0  0  0  0  0  0  0  0  0  0  0
  202.4705  126.1932  135.8267 C   0  0  0  0  0  0  0  0  0  0  0  0
  203.4557  132.2756  136.7551 C   0  0  0  0  0  0  0  0  0  0  0  0
  203.7956  133.3402  137.5493 C   0  0  0  0  0  0  0  0  0  0  0  0
  204.9511  133.7635  138.1782 O   0  0  0  0  0  0  0  0  0  0  0  0
  204.6175  134.7489  139.1414 C   0  0  0  0  0  0  0  0  0  0  0  0
  203.3892  135.2763  138.6793 O   0  0  0  0  0  0  0  0  0  0  0  0
  202.8290  134.2958  137.8721 C   0  0  0  0  0  0  0  0  0  0  0  0
  201.5305  134.2079  137.4169 C   0  0  0  0  0  0  0  0  0  0  0  0
  200.4999  135.2387  137.7688 C   0  0  0  0  0  0  0  0  0  0  0  0
  201.1854  133.1328  136.6144 C   0  0  0  0  0  0  0  0  0  0  0  0
  199.8853  133.0303  136.1517 O   0  0  0  0  0  0  0  0  0  0  0  0
  199.5383  133.4753  134.8994 C   0  0  0  0  0  0  0  0  0  0  0  0
  198.1275  133.3299  134.4021 C   0  0  0  0  0  0  0  0  0  0  0  0
  200.3593  134.0162  134.1160 O   0  0  0  0  0  0  0  0  0  0  0  0
  202.1413  132.2143  136.3121 C   0  0  0  0  0  0  0  0  0  0  0  0
  1  2  1  0
  2  3  1  6
  3  4  1  0
  4  5  1  0
  5  6  1  6
  6  7  1  0
  7  8  1  0
  8  9  1  0
  9 10  2  0
 10 11  1  0
 11 12  2  0
 12 13  1  0
 13 14  1  0
 12 15  1  0
 15 16  1  0
 15 17  2  0
  5 18  1  0
 18 19  2  0
 18 20  1  0
 20 21  1  0
 22 21  1  6
 22 23  1  0
 23 24  1  0
 24 25  1  1
 24 26  1  0
 26 27  1  6
 27 28  1  0
 28 29  2  0
 29 30  1  0
 30 31  1  0
 30 32  2  0
 32 33  1  0
 33 34  1  0
 32 35  1  0
 35 36  1  0
 35 37  2  0
 38 37  1  6
 38 39  1  0
 39 40  1  0
 22 41  1  0
 41 42  2  0
 42 43  1  0
 43 44  1  0
 44 45  1  0
 45 46  1  0
 46 47  2  0
 47 48  1  0
 47 49  1  0
 49 50  1  0
 50 51  1  0
 51 52  1  0
 51 53  2  0
 49 54  2  0
  1 23  1  6
 39 26  1  0
 54 41  1  0
 38  1  1  0
 46 42  1  0
 54  2  1  0
 10  5  1  0
 37 28  1  0
 17  9  1  0
M  END
$$$$
