
     RDKit          3D

 54 62  0  0  0  0  0  0  0  0999 V2000
  189.1739  163.0590  127.2637 C   0  0  2  0  0  0  0  0  0  0  0  0
  190.3748  162.6756  126.3853 C   0  0  2  0  0  0  0  0  0  0  0  0
  189.9655  161.1321  125.5471 S   0  0  0  0  0  0  0  0  0  0  0  0
  191.0002  159.7570  126.0082 C   0  0  0  0  0  0  0  0  0  0  0  0
  190.2892  158.4255  125.9539 C   0  0  1  0  0  0  0  0  0  0  0  0
  189.7366  158.3157  124.6145 N   0  0  0  0  0  0  0  0  0  0  0  0
  190.7267  158.3495  123.5938 C   0  0  0  0  0  0  0  0  0  0  0  0
  191.9372  157.5235  123.7954 C   0  0  0  0  0  0  0  0  0  0  0  0
  192.0892  156.9424  125.1516 C   0  0  0  0  0  0  0  0  0  0  0  0
  191.3083  157.3687  126.1837 C   0  0  0  0  0  0  0  0  0  0  0  0
  191.4787  156.8038  127.4325 C   0  0  0  0  0  0  0  0  0  0  0  0
  192.4158  155.8141  127.6880 C   0  0  0  0  0  0  0  0  0  0  0  0
  192.5848  155.2473  128.9475 O   0  0  0  0  0  0  0  0  0  0  0  0
  192.3449  153.8952  129.2198 C   0  0  0  0  0  0  0  0  0  0  0  0
  193.2037  155.3858  126.6408 C   0  0  0  0  0  0  0  0  0  0  0  0
  194.1615  154.3903  126.8518 O   0  0  0  0  0  0  0  0  0  0  0  0
  193.0311  155.9513  125.3966 C   0  0  0  0  0  0  0  0  0  0  0  0
  189.1469  158.3265  126.8948 C   0  0  0  0  0  0  0  0  0  0  0  0
  188.5047  157.2223  126.8280 O   0  0  0  0  0  0  0  0  0  0  0  0
  188.8648  159.3598  127.7276 O   0  0  0  0  0  0  0  0  0  0  0  0
  189.5407  159.8372  128.8435 C   0  0  0  0  0  0  0  0  0  0  0  0
  189.6762  161.3592  128.7874 C   0  0  2  0  0  0  0  0  0  0  0  0
  188.7238  161.8275  127.8308 N   0  0  0  0  0  0  0  0  0  0  0  0
  187.3774  161.8260  128.3171 C   0  0  1  0  0  0  0  0  0  0  0  0
  187.2014  162.4376  129.5318 O   0  0  0  0  0  0  0  0  0  0  0  0
  186.4915  162.4615  127.2643 C   0  0  2  0  0  0  0  0  0  0  0  0
  186.5633  161.7547  125.9548 C   0  0  0  0  0  0  0  0  0  0  0  0
  187.1586  162.5513  124.8623 C   0  0  0  0  0  0  0  0  0  0  0  0
  186.9333  162.2656  123.5327 C   0  0  0  0  0  0  0  0  0  0  0  0
  187.4862  163.0257  122.5037 C   0  0  0  0  0  0  0  0  0  0  0  0
  187.2016  162.6608  121.0978 C   0  0  0  0  0  0  0  0  0  0  0  0
  188.2853  164.0996  122.8264 C   0  0  0  0  0  0  0  0  0  0  0  0
  188.8282  164.8465  121.7995 O   0  0  0  0  0  0  0  0  0  0  0  0
  188.7415  166.2481  121.7158 C   0  0  0  0  0  0  0  0  0  0  0  0
  188.5372  164.4213  124.1410 C   0  0  0  0  0  0  0  0  0  0  0  0
  189.3432  165.5079  124.4503 O   0  0  0  0  0  0  0  0  0  0  0  0
  187.9763  163.6496  125.1435 C   0  0  0  0  0  0  0  0  0  0  0  0
  188.1871  163.9115  126.5856 C   0  0  1  0  0  0  0  0  0  0  0  0
  186.8866  163.8565  127.2231 N   0  0  0  0  0  0  0  0  0  0  0  0
  185.9092  164.6886  126.6086 C   0  0  0  0  0  0  0  0  0  0  0  0
  191.0659  161.7648  128.5291 C   0  0  0  0  0  0  0  0  0  0  0  0
  192.0388  161.5115  129.4614 C   0  0  0  0  0  0  0  0  0  0  0  0
  192.0695  160.9146  130.7074 O   0  0  0  0  0  0  0  0  0  0  0  0
  193.2907  161.2453  131.3472 C   0  0  0  0  0  0  0  0  0  0  0  0
  194.1653  161.5489  130.2779 O   0  0  0  0  0  0  0  0  0  0  0  0
  193.3556  161.9025  129.2073 C   0  0  0  0  0  0  0  0  0  0  0  0
  193.7186  162.5413  128.0406 C   0  0  0  0  0  0  0  0  0  0  0  0
  195.1349  162.9572  127.7769 C   0  0  0  0  0  0  0  0  0  0  0  0
  192.7369  162.7981  127.0976 C   0  0  0  0  0  0  0  0  0  0  0  0
  193.0860  163.4404  125.9226 O   0  0  0  0  0  0  0  0  0  0  0  0
  192.6794  162.9607  124.7014 C   0  0  0  0  0  0  0  0  0  0  0  0
  193.0041  163.7115  123.4407 C   0  0  0  0  0  0  0  0  0  0  0  0
  192.0286  161.8931  124.5702 O   0  0  0  0  0  0  0  0  0  0  0  0
  191.4617  162.4091  127.3646 C   0  0  0  0  0  0  0  0  0  0  0  0
  1  2  1  0
  2  3  1  1
  3  4  1  0
  4  5  1  0
  5  6  1  6
  6  7  1  0
  7  8  1  0
  8  9  1  0
  9 10  2  0
 10 11  1  0
 11 12  2  0
 12 13  1  0
 13 14  1  0
 12 15  1  0
 15 16  1  0
 15 17  2  0
  5 18  1  0
 18 19  2  0
 18 20  1  0
 20 21  1  0
 22 21  1  6
 22 23  1  0
 23 24  1  0
 24 25  1  1
 24 26  1  0
 26 27  1  6
 27 28  1  0
 28 29  2  0
 29 30  1  0
 30 31  1  0
 30 32  2  0
 32 33  1  0
 33 34  1  0
 32 35  1  0
 35 36  1  0
 35 37  2  0
 38 37  1  6
 38 39  1  0
 39 40  1  0
 22 41  1  0
 41 42  2  0
 42 43  1  0
 43 44  1  0
 44 45  1  0
 45 46  1  0
 46 47  2  0
 47 48  1  0
 47 49  1  0
 49 50  1  0
 50 51  1  0
 51 52  1  0
 51 53  2  0
 49 54  2  0
  1 23  1  6
 39 26  1  0
 54 41  1  0
 38  1  1  0
 46 42  1  0
 54  2  1  0
 10  5  1  0
 37 28  1  0
 17  9  1  0
M  END
$$$$
