
     RDKit          3D

 34 38  0  0  0  0  0  0  0  0999 V2000
  163.8755  149.0048  126.4132 C   0  0  2  0  0  0  0  0  0  0  0  0
  162.9043  148.0888  127.1377 C   0  0  0  0  0  0  0  0  0  0  0  0
  161.6604  147.7949  126.3334 C   0  0  1  0  0  0  0  0  0  0  0  0
  160.6682  148.9521  126.4602 C   0  0  0  0  0  0  0  0  0  0  0  0
  162.0179  147.5208  124.9119 C   0  0  0  0  0  0  0  0  0  0  0  0
  163.4896  147.1815  124.8683 C   0  0  0  0  0  0  0  0  0  0  0  0
  164.2403  148.5118  125.0621 C   0  0  1  0  0  0  0  0  0  0  0  0
  163.6473  149.4136  123.9697 C   0  0  0  0  0  0  0  0  0  0  0  0
  165.6604  148.2362  124.7964 C   0  0  0  0  0  0  0  0  0  0  0  0
  166.6634  148.5189  125.8618 C   0  0  0  0  0  0  0  0  0  0  0  0
  166.2954  149.7109  126.7206 C   0  0  2  0  0  0  0  0  0  0  0  0
  166.3007  150.8798  125.8100 C   0  0  0  0  0  0  0  0  0  0  0  0
  167.2537  149.8310  127.8765 C   0  0  0  0  0  0  0  0  0  0  0  0
  168.3510  149.0966  127.8999 C   0  0  0  0  0  0  0  0  0  0  0  0
  169.3527  149.1079  128.9600 C   0  0  0  0  0  0  0  0  0  0  0  0
  169.1509  149.9120  129.9840 C   0  0  0  0  0  0  0  0  0  0  0  0
  170.1475  149.9258  131.0532 C   0  0  0  0  0  0  0  0  0  0  0  0
  171.3345  149.0712  130.9289 C   0  0  0  0  0  0  0  0  0  0  0  0
  169.9627  150.7054  132.1091 C   0  0  0  0  0  0  0  0  0  0  0  0
  170.9133  150.7259  133.1406 O   0  0  0  0  0  0  0  0  0  0  0  0
  168.7693  151.5449  132.2016 C   0  0  0  0  0  0  0  0  0  0  0  0
  168.5990  152.2917  133.2225 O   0  0  0  0  0  0  0  0  0  0  0  0
  167.7883  151.5213  131.1303 C   0  0  0  0  0  0  0  0  0  0  0  0
  167.9536  150.7394  130.0473 C   0  0  0  0  0  0  0  0  0  0  0  0
  166.9629  150.8067  128.9754 C   0  0  1  0  0  0  0  0  0  0  0  0
  166.9074  152.2538  128.4193 C   0  0  0  0  0  0  0  0  0  0  0  0
  165.5542  150.5757  129.4727 C   0  0  0  0  0  0  0  0  0  0  0  0
  164.5777  150.4305  128.3198 C   0  0  0  0  0  0  0  0  0  0  0  0
  164.9761  149.3498  127.3415 C   0  0  1  0  0  0  0  0  0  0  0  0
  165.2430  148.1196  128.2245 C   0  0  0  0  0  0  0  0  0  0  0  0
  160.9633  146.6116  126.8923 C   0  0  0  0  0  0  0  0  0  0  0  0
  159.7195  146.5309  126.7434 O   0  0  0  0  0  0  0  0  0  0  0  0
  161.6364  145.5999  127.5685 O   0  0  0  0  0  0  0  0  0  0  0  0
  161.5959  144.2896  127.0096 C   0  0  0  0  0  0  0  0  0  0  0  0
  1  2  1  1
  2  3  1  0
  3  4  1  6
  3  5  1  0
  5  6  1  0
  6  7  1  0
  7  8  1  6
  7  9  1  0
  9 10  1  0
 10 11  1  0
 11 12  1  6
 11 13  1  0
 13 14  2  0
 14 15  1  0
 15 16  2  0
 16 17  1  0
 17 18  1  0
 17 19  2  0
 19 20  1  0
 19 21  1  0
 21 22  2  0
 21 23  1  0
 23 24  2  0
 24 25  1  0
 25 26  1  6
 25 27  1  0
 27 28  1  0
 28 29  1  0
 29 30  1  1
  3 31  1  0
 31 32  2  0
 31 33  1  0
 33 34  1  0
  7  1  1  0
 29 11  1  0
 29  1  1  0
 25 13  1  0
 24 16  1  0
M  END
$$$$
