
     RDKit          3D

 34 38  0  0  0  0  0  0  0  0999 V2000
  172.5789  162.1620  111.8285 C   0  0  2  0  0  0  0  0  0  0  0  0
  171.1395  162.2580  111.3532 C   0  0  0  0  0  0  0  0  0  0  0  0
  170.3729  160.9693  111.5322 C   0  0  1  0  0  0  0  0  0  0  0  0
  170.6902  160.0066  110.3867 C   0  0  0  0  0  0  0  0  0  0  0  0
  170.6754  160.3698  112.8636 C   0  0  0  0  0  0  0  0  0  0  0  0
  171.2600  161.4588  113.7327 C   0  0  0  0  0  0  0  0  0  0  0  0
  172.6973  161.6826  113.2278 C   0  0  1  0  0  0  0  0  0  0  0  0
  173.3110  160.2758  113.2763 C   0  0  0  0  0  0  0  0  0  0  0  0
  173.3516  162.5705  114.2007 C   0  0  0  0  0  0  0  0  0  0  0  0
  173.9137  163.8685  113.7309 C   0  0  0  0  0  0  0  0  0  0  0  0
  174.4542  163.8032  112.3176 C   0  0  2  0  0  0  0  0  0  0  0  0
  175.5813  162.8422  112.3619 C   0  0  0  0  0  0  0  0  0  0  0  0
  174.8423  165.1808  111.8482 C   0  0  0  0  0  0  0  0  0  0  0  0
  174.8858  166.1809  112.7096 C   0  0  0  0  0  0  0  0  0  0  0  0
  175.2340  167.5598  112.3861 C   0  0  0  0  0  0  0  0  0  0  0  0
  175.5269  167.8390  111.1323 C   0  0  0  0  0  0  0  0  0  0  0  0
  175.8722  169.2196  110.7986 C   0  0  0  0  0  0  0  0  0  0  0  0
  175.9048  170.2224  111.8702 C   0  0  0  0  0  0  0  0  0  0  0  0
  176.1485  169.5390  109.5423 C   0  0  0  0  0  0  0  0  0  0  0  0
  176.4810  170.8613  109.2118 O   0  0  0  0  0  0  0  0  0  0  0  0
  176.1074  168.5158  108.4989 C   0  0  0  0  0  0  0  0  0  0  0  0
  176.3737  168.8327  107.2916 O   0  0  0  0  0  0  0  0  0  0  0  0
  175.7637  167.1477  108.8461 C   0  0  0  0  0  0  0  0  0  0  0  0
  175.4805  166.7978  110.1146 C   0  0  0  0  0  0  0  0  0  0  0  0
  175.2032  165.3939  110.4100 C   0  0  1  0  0  0  0  0  0  0  0  0
  176.4367  164.5359  110.0243 C   0  0  0  0  0  0  0  0  0  0  0  0
  174.1042  164.8249  109.5419 C   0  0  0  0  0  0  0  0  0  0  0  0
  173.6851  163.4446  110.0142 C   0  0  0  0  0  0  0  0  0  0  0  0
  173.2764  163.4175  111.4688 C   0  0  1  0  0  0  0  0  0  0  0  0
  172.2628  164.5665  111.5986 C   0  0  0  0  0  0  0  0  0  0  0  0
  168.9161  161.2292  111.4400 C   0  0  0  0  0  0  0  0  0  0  0  0
  168.1666  160.7192  112.3083 O   0  0  0  0  0  0  0  0  0  0  0  0
  168.3602  162.0113  110.4334 O   0  0  0  0  0  0  0  0  0  0  0  0
  168.0587  161.3775  109.1931 C   0  0  0  0  0  0  0  0  0  0  0  0
  1  2  1  1
  2  3  1  0
  3  4  1  6
  3  5  1  0
  5  6  1  0
  6  7  1  0
  7  8  1  6
  7  9  1  0
  9 10  1  0
 10 11  1  0
 11 12  1  1
 11 13  1  0
 13 14  2  0
 14 15  1  0
 15 16  2  0
 16 17  1  0
 17 18  1  0
 17 19  2  0
 19 20  1  0
 19 21  1  0
 21 22  2  0
 21 23  1  0
 23 24  2  0
 24 25  1  0
 25 26  1  6
 25 27  1  0
 27 28  1  0
 28 29  1  0
 29 30  1  6
  3 31  1  0
 31 32  2  0
 31 33  1  0
 33 34  1  0
  7  1  1  0
 29 11  1  0
 29  1  1  0
 25 13  1  0
 24 16  1  0
M  END
$$$$
