
     RDKit          3D

 34 38  0  0  0  0  0  0  0  0999 V2000
  107.1966  165.3361  158.6354 C   0  0  2  0  0  0  0  0  0  0  0  0
  106.2719  166.5387  158.5597 C   0  0  0  0  0  0  0  0  0  0  0  0
  105.6691  166.9031  159.8956 C   0  0  1  0  0  0  0  0  0  0  0  0
  104.4729  165.9983  160.1957 C   0  0  0  0  0  0  0  0  0  0  0  0
  106.7048  166.8307  160.9658 C   0  0  0  0  0  0  0  0  0  0  0  0
  108.0582  166.8730  160.2955 C   0  0  0  0  0  0  0  0  0  0  0  0
  108.2620  165.4866  159.6572 C   0  0  1  0  0  0  0  0  0  0  0  0
  108.0377  164.5219  160.8307 C   0  0  0  0  0  0  0  0  0  0  0  0
  109.6589  165.4351  159.1998 C   0  0  0  0  0  0  0  0  0  0  0  0
  109.9387  165.1761  157.7590 C   0  0  0  0  0  0  0  0  0  0  0  0
  108.9208  164.2593  157.1132 C   0  0  2  0  0  0  0  0  0  0  0  0
  109.0497  162.9592  157.8124 C   0  0  0  0  0  0  0  0  0  0  0  0
  109.1624  164.1826  155.6285 C   0  0  0  0  0  0  0  0  0  0  0  0
  110.2691  164.6886  155.1154 C   0  0  0  0  0  0  0  0  0  0  0  0
  110.6199  164.6905  153.6997 C   0  0  0  0  0  0  0  0  0  0  0  0
  109.7653  164.1476  152.8567 C   0  0  0  0  0  0  0  0  0  0  0  0
  110.1070  164.1497  151.4355 C   0  0  0  0  0  0  0  0  0  0  0  0
  111.3893  164.7267  151.0142 C   0  0  0  0  0  0  0  0  0  0  0  0
  109.2581  163.6332  150.5583 C   0  0  0  0  0  0  0  0  0  0  0  0
  109.5768  163.6305  149.1921 O   0  0  0  0  0  0  0  0  0  0  0  0
  107.9892  163.0659  151.0114 C   0  0  0  0  0  0  0  0  0  0  0  0
  107.1774  162.5717  150.1595 O   0  0  0  0  0  0  0  0  0  0  0  0
  107.6641  163.0699  152.4273 C   0  0  0  0  0  0  0  0  0  0  0  0
  108.5097  163.5871  153.3379 C   0  0  0  0  0  0  0  0  0  0  0  0
  108.1534  163.5052  154.7525 C   0  0  1  0  0  0  0  0  0  0  0  0
  107.9942  162.0156  155.1553 C   0  0  0  0  0  0  0  0  0  0  0  0
  106.7883  164.0867  155.0411 C   0  0  0  0  0  0  0  0  0  0  0  0
  106.5363  164.1916  156.5342 C   0  0  0  0  0  0  0  0  0  0  0  0
  107.6071  164.9729  157.2600 C   0  0  1  0  0  0  0  0  0  0  0  0
  107.7372  166.2757  156.4538 C   0  0  0  0  0  0  0  0  0  0  0  0
  105.1222  168.2804  159.8459 C   0  0  0  0  0  0  0  0  0  0  0  0
  103.8771  168.4217  159.7707 O   0  0  0  0  0  0  0  0  0  0  0  0
  105.9358  169.4077  159.8796 O   0  0  0  0  0  0  0  0  0  0  0  0
  105.8432  170.3235  158.7917 C   0  0  0  0  0  0  0  0  0  0  0  0
  1  2  1  6
  2  3  1  0
  3  4  1  1
  3  5  1  0
  5  6  1  0
  6  7  1  0
  7  8  1  1
  7  9  1  0
  9 10  1  0
 10 11  1  0
 11 12  1  1
 11 13  1  0
 13 14  2  0
 14 15  1  0
 15 16  2  0
 16 17  1  0
 17 18  1  0
 17 19  2  0
 19 20  1  0
 19 21  1  0
 21 22  2  0
 21 23  1  0
 23 24  2  0
 24 25  1  0
 25 26  1  1
 25 27  1  0
 27 28  1  0
 28 29  1  0
 29 30  1  6
  3 31  1  0
 31 32  2  0
 31 33  1  0
 33 34  1  0
  7  1  1  0
 29 11  1  0
 29  1  1  0
 25 13  1  0
 24 16  1  0
M  END
$$$$
