
     RDKit          3D

 34 38  0  0  0  0  0  0  0  0999 V2000
  147.7260  168.7920  134.5977 C   0  0  2  0  0  0  0  0  0  0  0  0
  148.9765  169.4974  135.0935 C   0  0  0  0  0  0  0  0  0  0  0  0
  148.9832  169.7022  136.5898 C   0  0  1  0  0  0  0  0  0  0  0  0
  148.1434  170.9272  136.9554 C   0  0  0  0  0  0  0  0  0  0  0  0
  148.5031  168.4712  137.2810 C   0  0  0  0  0  0  0  0  0  0  0  0
  148.6177  167.3244  136.3040 C   0  0  0  0  0  0  0  0  0  0  0  0
  147.4695  167.5073  135.2944 C   0  0  1  0  0  0  0  0  0  0  0  0
  146.2257  167.6066  136.1895 C   0  0  0  0  0  0  0  0  0  0  0  0
  147.4281  166.2844  134.4783 C   0  0  0  0  0  0  0  0  0  0  0  0
  147.5823  166.3962  133.0001 C   0  0  0  0  0  0  0  0  0  0  0  0
  146.9944  167.6739  132.4381 C   0  0  2  0  0  0  0  0  0  0  0  0
  145.5396  167.6012  132.7102 C   0  0  0  0  0  0  0  0  0  0  0  0
  147.3384  167.8026  130.9774 C   0  0  0  0  0  0  0  0  0  0  0  0
  147.8701  166.7789  130.3344 C   0  0  0  0  0  0  0  0  0  0  0  0
  148.2584  166.7738  128.9285 C   0  0  0  0  0  0  0  0  0  0  0  0
  148.0696  167.8795  128.2375 C   0  0  0  0  0  0  0  0  0  0  0  0
  148.4605  167.8845  126.8291 C   0  0  0  0  0  0  0  0  0  0  0  0
  149.0166  166.6593  126.2420 C   0  0  0  0  0  0  0  0  0  0  0  0
  148.3064  168.9883  126.1117 C   0  0  0  0  0  0  0  0  0  0  0  0
  148.6786  169.0032  124.7591 O   0  0  0  0  0  0  0  0  0  0  0  0
  147.7490  170.1916  126.7270 C   0  0  0  0  0  0  0  0  0  0  0  0
  147.6052  171.2503  126.0289 O   0  0  0  0  0  0  0  0  0  0  0  0
  147.3639  170.1709  128.1277 C   0  0  0  0  0  0  0  0  0  0  0  0
  147.5092  169.0623  128.8771 C   0  0  0  0  0  0  0  0  0  0  0  0
  147.0456  169.0861  130.2625 C   0  0  1  0  0  0  0  0  0  0  0  0
  145.5246  169.3901  130.2885 C   0  0  0  0  0  0  0  0  0  0  0  0
  147.6380  170.2306  131.0525 C   0  0  0  0  0  0  0  0  0  0  0  0
  147.3194  170.1053  132.5312 C   0  0  0  0  0  0  0  0  0  0  0  0
  147.7497  168.7805  133.1174 C   0  0  1  0  0  0  0  0  0  0  0  0
  149.2151  168.6298  132.6766 C   0  0  0  0  0  0  0  0  0  0  0  0
  150.3575  170.0107  137.0529 C   0  0  0  0  0  0  0  0  0  0  0  0
  150.6973  171.2160  137.1403 O   0  0  0  0  0  0  0  0  0  0  0  0
  151.2715  169.0182  137.3896 O   0  0  0  0  0  0  0  0  0  0  0  0
  152.2390  168.6495  136.4103 C   0  0  0  0  0  0  0  0  0  0  0  0
  1  2  1  1
  2  3  1  0
  3  4  1  6
  3  5  1  0
  5  6  1  0
  6  7  1  0
  7  8  1  1
  7  9  1  0
  9 10  1  0
 10 11  1  0
 11 12  1  6
 11 13  1  0
 13 14  2  0
 14 15  1  0
 15 16  2  0
 16 17  1  0
 17 18  1  0
 17 19  2  0
 19 20  1  0
 19 21  1  0
 21 22  2  0
 21 23  1  0
 23 24  2  0
 24 25  1  0
 25 26  1  6
 25 27  1  0
 27 28  1  0
 28 29  1  0
 29 30  1  1
  3 31  1  0
 31 32  2  0
 31 33  1  0
 33 34  1  0
  7  1  1  0
 29 11  1  0
 29  1  1  0
 25 13  1  0
 24 16  1  0
M  END
$$$$
