
     RDKit          3D

 34 38  0  0  0  0  0  0  0  0999 V2000
  191.1662  163.3064  133.4408 C   0  0  2  0  0  0  0  0  0  0  0  0
  191.2561  163.1176  131.9364 C   0  0  0  0  0  0  0  0  0  0  0  0
  192.4356  163.8335  131.3224 C   0  0  1  0  0  0  0  0  0  0  0  0
  192.1040  165.3130  131.1200 C   0  0  0  0  0  0  0  0  0  0  0  0
  193.6500  163.6452  132.1670 C   0  0  0  0  0  0  0  0  0  0  0  0
  193.4016  162.4564  133.0657 C   0  0  0  0  0  0  0  0  0  0  0  0
  192.4175  162.9375  134.1478 C   0  0  1  0  0  0  0  0  0  0  0  0
  193.1091  164.1809  134.7254 C   0  0  0  0  0  0  0  0  0  0  0  0
  192.3430  161.8677  135.1544 C   0  0  0  0  0  0  0  0  0  0  0  0
  191.0200  161.2526  135.4591 C   0  0  0  0  0  0  0  0  0  0  0  0
  189.8705  162.2318  135.3423 C   0  0  2  0  0  0  0  0  0  0  0  0
  190.1111  163.2606  136.3812 C   0  0  0  0  0  0  0  0  0  0  0  0
  188.5578  161.5081  135.4897 C   0  0  0  0  0  0  0  0  0  0  0  0
  188.5417  160.2517  135.8964 C   0  0  0  0  0  0  0  0  0  0  0  0
  187.3456  159.4353  136.0703 C   0  0  0  0  0  0  0  0  0  0  0  0
  186.1817  159.9891  135.7975 C   0  0  0  0  0  0  0  0  0  0  0  0
  184.9783  159.1764  135.9644 C   0  0  0  0  0  0  0  0  0  0  0  0
  185.1140  157.7981  136.4512 C   0  0  0  0  0  0  0  0  0  0  0  0
  183.7935  159.6955  135.6754 C   0  0  0  0  0  0  0  0  0  0  0  0
  182.6326  158.9236  135.8322 O   0  0  0  0  0  0  0  0  0  0  0  0
  183.6933  161.0719  135.1930 C   0  0  0  0  0  0  0  0  0  0  0  0
  182.5484  161.5632  134.9161 O   0  0  0  0  0  0  0  0  0  0  0  0
  184.8982  161.8678  135.0334 C   0  0  0  0  0  0  0  0  0  0  0  0
  186.1127  161.3641  135.3213 C   0  0  0  0  0  0  0  0  0  0  0  0
  187.2801  162.2343  135.1994 C   0  0  1  0  0  0  0  0  0  0  0  0
  187.1151  163.4489  136.1503 C   0  0  0  0  0  0  0  0  0  0  0  0
  187.3838  162.8777  133.8355 C   0  0  0  0  0  0  0  0  0  0  0  0
  188.7107  163.5938  133.6613 C   0  0  0  0  0  0  0  0  0  0  0  0
  189.9020  162.6991  133.9150 C   0  0  1  0  0  0  0  0  0  0  0  0
  189.6313  161.4550  133.0529 C   0  0  0  0  0  0  0  0  0  0  0  0
  192.7035  163.2978  129.9660 C   0  0  0  0  0  0  0  0  0  0  0  0
  192.0107  163.7272  129.0114 O   0  0  0  0  0  0  0  0  0  0  0  0
  193.6870  162.3456  129.7209 O   0  0  0  0  0  0  0  0  0  0  0  0
  194.6598  162.1220  130.7380 C   0  0  0  0  0  0  0  0  0  0  0  0
  1  2  1  6
  2  3  1  0
  3  4  1  6
  3  5  1  0
  5  6  1  0
  6  7  1  0
  7  8  1  1
  7  9  1  0
  9 10  1  0
 10 11  1  0
 11 12  1  1
 11 13  1  0
 13 14  2  0
 14 15  1  0
 15 16  2  0
 16 17  1  0
 17 18  1  0
 17 19  2  0
 19 20  1  0
 19 21  1  0
 21 22  2  0
 21 23  1  0
 23 24  2  0
 24 25  1  0
 25 26  1  1
 25 27  1  0
 27 28  1  0
 28 29  1  0
 29 30  1  6
  3 31  1  0
 31 32  2  0
 31 33  1  0
 33 34  1  0
  7  1  1  0
 29 11  1  0
 29  1  1  0
 25 13  1  0
 24 16  1  0
M  END
$$$$
