
     RDKit          3D

 34 38  0  0  0  0  0  0  0  0999 V2000
  171.5560  146.3815  125.7974 C   0  0  2  0  0  0  0  0  0  0  0  0
  170.7980  147.2920  126.7479 C   0  0  0  0  0  0  0  0  0  0  0  0
  171.4693  147.4282  128.0938 C   0  0  1  0  0  0  0  0  0  0  0  0
  171.1308  146.2234  128.9732 C   0  0  0  0  0  0  0  0  0  0  0  0
  172.9409  147.5964  127.9217 C   0  0  0  0  0  0  0  0  0  0  0  0
  173.1875  148.0282  126.4949 C   0  0  0  0  0  0  0  0  0  0  0  0
  172.9767  146.7740  125.6269 C   0  0  1  0  0  0  0  0  0  0  0  0
  173.9131  145.7398  126.2685 C   0  0  0  0  0  0  0  0  0  0  0  0
  173.4318  147.1190  124.2715 C   0  0  0  0  0  0  0  0  0  0  0  0
  172.4742  147.0013  123.1355 C   0  0  0  0  0  0  0  0  0  0  0  0
  171.4831  145.8696  123.3110 C   0  0  2  0  0  0  0  0  0  0  0  0
  172.2893  144.6263  123.3189 C   0  0  0  0  0  0  0  0  0  0  0  0
  170.4440  145.9185  122.2217 C   0  0  0  0  0  0  0  0  0  0  0  0
  170.6120  146.7238  121.1886 C   0  0  0  0  0  0  0  0  0  0  0  0
  169.6817  146.8753  120.0755 C   0  0  0  0  0  0  0  0  0  0  0  0
  168.5787  146.1551  120.0975 C   0  0  0  0  0  0  0  0  0  0  0  0
  167.6385  146.3044  118.9883 C   0  0  0  0  0  0  0  0  0  0  0  0
  167.9732  147.2219  117.8923 C   0  0  0  0  0  0  0  0  0  0  0  0
  166.5080  145.6126  118.9918 C   0  0  0  0  0  0  0  0  0  0  0  0
  165.5992  145.7489  117.9318 O   0  0  0  0  0  0  0  0  0  0  0  0
  166.2054  144.7068  120.0987 C   0  0  0  0  0  0  0  0  0  0  0  0
  165.1138  144.0454  120.0944 O   0  0  0  0  0  0  0  0  0  0  0  0
  167.1501  144.5681  121.1936 C   0  0  0  0  0  0  0  0  0  0  0  0
  168.3054  145.2585  121.2127 C   0  0  0  0  0  0  0  0  0  0  0  0
  169.2422  145.0287  122.3102 C   0  0  1  0  0  0  0  0  0  0  0  0
  169.6676  143.5368  122.3167 C   0  0  0  0  0  0  0  0  0  0  0  0
  168.6008  145.2087  123.6672 C   0  0  0  0  0  0  0  0  0  0  0  0
  169.6368  145.1837  124.7762 C   0  0  0  0  0  0  0  0  0  0  0  0
  170.7407  146.1961  124.5755 C   0  0  1  0  0  0  0  0  0  0  0  0
  169.9994  147.5160  124.3059 C   0  0  0  0  0  0  0  0  0  0  0  0
  170.9297  148.6078  128.8121 C   0  0  0  0  0  0  0  0  0  0  0  0
  171.7320  149.5086  129.1597 O   0  0  0  0  0  0  0  0  0  0  0  0
  169.5783  148.7461  129.1096 O   0  0  0  0  0  0  0  0  0  0  0  0
  168.7387  149.3308  128.1176 C   0  0  0  0  0  0  0  0  0  0  0  0
  1  2  1  1
  2  3  1  0
  3  4  1  1
  3  5  1  0
  5  6  1  0
  6  7  1  0
  7  8  1  1
  7  9  1  0
  9 10  1  0
 10 11  1  0
 11 12  1  1
 11 13  1  0
 13 14  2  0
 14 15  1  0
 15 16  2  0
 16 17  1  0
 17 18  1  0
 17 19  2  0
 19 20  1  0
 19 21  1  0
 21 22  2  0
 21 23  1  0
 23 24  2  0
 24 25  1  0
 25 26  1  1
 25 27  1  0
 27 28  1  0
 28 29  1  0
 29 30  1  6
  3 31  1  0
 31 32  2  0
 31 33  1  0
 33 34  1  0
  7  1  1  0
 29 11  1  0
 29  1  1  0
 25 13  1  0
 24 16  1  0
M  END
$$$$
