
     RDKit          3D

 34 38  0  0  0  0  0  0  0  0999 V2000
  131.9178  138.3064  128.9125 C   0  0  2  0  0  0  0  0  0  0  0  0
  131.4998  138.3369  127.4525 C   0  0  0  0  0  0  0  0  0  0  0  0
  132.3204  137.4119  126.5856 C   0  0  1  0  0  0  0  0  0  0  0  0
  133.6498  138.0755  126.2221 C   0  0  0  0  0  0  0  0  0  0  0  0
  132.5203  136.1035  127.2722 C   0  0  0  0  0  0  0  0  0  0  0  0
  131.4744  135.9923  128.3569 C   0  0  0  0  0  0  0  0  0  0  0  0
  131.9272  136.9376  129.4850 C   0  0  1  0  0  0  0  0  0  0  0  0
  133.3618  136.4747  129.7781 C   0  0  0  0  0  0  0  0  0  0  0  0
  131.0488  136.6721  130.6344 C   0  0  0  0  0  0  0  0  0  0  0  0
  130.2452  137.7907  131.2037 C   0  0  0  0  0  0  0  0  0  0  0  0
  130.9445  139.1308  131.1085 C   0  0  2  0  0  0  0  0  0  0  0  0
  132.1605  139.0105  131.9467 C   0  0  0  0  0  0  0  0  0  0  0  0
  130.0115  140.2326  131.5378 C   0  0  0  0  0  0  0  0  0  0  0  0
  128.8634  139.9333  132.1178 C   0  0  0  0  0  0  0  0  0  0  0  0
  127.8684  140.8990  132.5701 C   0  0  0  0  0  0  0  0  0  0  0  0
  128.1278  142.1773  132.3847 C   0  0  0  0  0  0  0  0  0  0  0  0
  127.1337  143.1517  132.8306 C   0  0  0  0  0  0  0  0  0  0  0  0
  125.9113  142.6702  133.4855 C   0  0  0  0  0  0  0  0  0  0  0  0
  127.3527  144.4445  132.6372 C   0  0  0  0  0  0  0  0  0  0  0  0
  126.4047  145.3875  133.0616 O   0  0  0  0  0  0  0  0  0  0  0  0
  128.5811  144.8907  131.9820 C   0  0  0  0  0  0  0  0  0  0  0  0
  128.7832  146.1375  131.7989 O   0  0  0  0  0  0  0  0  0  0  0  0
  129.5605  143.9105  131.5454 C   0  0  0  0  0  0  0  0  0  0  0  0
  129.3620  142.5922  131.7314 C   0  0  0  0  0  0  0  0  0  0  0  0
  130.4121  141.6605  131.3264 C   0  0  1  0  0  0  0  0  0  0  0  0
  131.7127  141.9834  132.1079 C   0  0  0  0  0  0  0  0  0  0  0  0
  130.8243  141.8430  129.8835 C   0  0  0  0  0  0  0  0  0  0  0  0
  131.7482  140.7286  129.4272 C   0  0  0  0  0  0  0  0  0  0  0  0
  131.1618  139.3519  129.6387 C   0  0  1  0  0  0  0  0  0  0  0  0
  129.7616  139.4362  129.0087 C   0  0  0  0  0  0  0  0  0  0  0  0
  131.6275  137.1789  125.2956 C   0  0  0  0  0  0  0  0  0  0  0  0
  132.2436  137.4457  124.2349 O   0  0  0  0  0  0  0  0  0  0  0  0
  130.3315  136.6798  125.2246 O   0  0  0  0  0  0  0  0  0  0  0  0
  130.1532  135.3768  124.6756 C   0  0  0  0  0  0  0  0  0  0  0  0
  1  2  1  6
  2  3  1  0
  3  4  1  6
  3  5  1  0
  5  6  1  0
  6  7  1  0
  7  8  1  1
  7  9  1  0
  9 10  1  0
 10 11  1  0
 11 12  1  1
 11 13  1  0
 13 14  2  0
 14 15  1  0
 15 16  2  0
 16 17  1  0
 17 18  1  0
 17 19  2  0
 19 20  1  0
 19 21  1  0
 21 22  2  0
 21 23  1  0
 23 24  2  0
 24 25  1  0
 25 26  1  1
 25 27  1  0
 27 28  1  0
 28 29  1  0
 29 30  1  6
  3 31  1  0
 31 32  2  0
 31 33  1  0
 33 34  1  0
  7  1  1  0
 29 11  1  0
 29  1  1  0
 25 13  1  0
 24 16  1  0
M  END
$$$$
