
     RDKit          3D

 34 38  0  0  0  0  0  0  0  0999 V2000
  148.2079  165.4560  128.5591 C   0  0  2  0  0  0  0  0  0  0  0  0
  149.4846  165.9857  127.9295 C   0  0  0  0  0  0  0  0  0  0  0  0
  149.7455  165.4139  126.5563 C   0  0  1  0  0  0  0  0  0  0  0  0
  150.3772  164.0261  126.6773 C   0  0  0  0  0  0  0  0  0  0  0  0
  148.4840  165.3845  125.7617 C   0  0  0  0  0  0  0  0  0  0  0  0
  147.5102  166.3372  126.4151 C   0  0  0  0  0  0  0  0  0  0  0  0
  147.0165  165.6336  127.6926 C   0  0  1  0  0  0  0  0  0  0  0  0
  146.5070  164.2805  127.1753 C   0  0  0  0  0  0  0  0  0  0  0  0
  145.9058  166.4431  128.2164 C   0  0  0  0  0  0  0  0  0  0  0  0
  145.9996  166.9903  129.5995 C   0  0  0  0  0  0  0  0  0  0  0  0
  146.7555  166.0814  130.5462 C   0  0  2  0  0  0  0  0  0  0  0  0
  145.9555  164.8372  130.6340 C   0  0  0  0  0  0  0  0  0  0  0  0
  146.9629  166.7704  131.8695 C   0  0  0  0  0  0  0  0  0  0  0  0
  146.3284  167.8991  132.1296 C   0  0  0  0  0  0  0  0  0  0  0  0
  146.4474  168.6705  133.3616 C   0  0  0  0  0  0  0  0  0  0  0  0
  147.2558  168.2116  134.2953 C   0  0  0  0  0  0  0  0  0  0  0  0
  147.3847  168.9812  135.5313 C   0  0  0  0  0  0  0  0  0  0  0  0
  146.5939  170.2077  135.6900 C   0  0  0  0  0  0  0  0  0  0  0  0
  148.2080  168.5601  136.4809 C   0  0  0  0  0  0  0  0  0  0  0  0
  148.3387  169.2917  137.6707 O   0  0  0  0  0  0  0  0  0  0  0  0
  148.9809  167.3338  136.2911 C   0  0  0  0  0  0  0  0  0  0  0  0
  149.7722  166.9363  137.2104 O   0  0  0  0  0  0  0  0  0  0  0  0
  148.8413  166.5789  135.0578 C   0  0  0  0  0  0  0  0  0  0  0  0
  148.0111  166.9848  134.0791 C   0  0  0  0  0  0  0  0  0  0  0  0
  147.8679  166.1494  132.8890 C   0  0  1  0  0  0  0  0  0  0  0  0
  147.3418  164.7507  133.3052 C   0  0  0  0  0  0  0  0  0  0  0  0
  149.1954  165.8369  132.2369 C   0  0  0  0  0  0  0  0  0  0  0  0
  149.0049  165.1612  130.8911 C   0  0  0  0  0  0  0  0  0  0  0  0
  148.1287  165.9557  129.9505 C   0  0  1  0  0  0  0  0  0  0  0  0
  148.7340  167.3691  129.9726 C   0  0  0  0  0  0  0  0  0  0  0  0
  150.7456  166.2443  125.8432 C   0  0  0  0  0  0  0  0  0  0  0  0
  151.6142  166.8420  126.5245 O   0  0  0  0  0  0  0  0  0  0  0  0
  150.7517  166.3803  124.4592 O   0  0  0  0  0  0  0  0  0  0  0  0
  150.1909  167.5690  123.9085 C   0  0  0  0  0  0  0  0  0  0  0  0
  1  2  1  6
  2  3  1  0
  3  4  1  1
  3  5  1  0
  5  6  1  0
  6  7  1  0
  7  8  1  6
  7  9  1  0
  9 10  1  0
 10 11  1  0
 11 12  1  1
 11 13  1  0
 13 14  2  0
 14 15  1  0
 15 16  2  0
 16 17  1  0
 17 18  1  0
 17 19  2  0
 19 20  1  0
 19 21  1  0
 21 22  2  0
 21 23  1  0
 23 24  2  0
 24 25  1  0
 25 26  1  1
 25 27  1  0
 27 28  1  0
 28 29  1  0
 29 30  1  6
  3 31  1  0
 31 32  2  0
 31 33  1  0
 33 34  1  0
  7  1  1  0
 29 11  1  0
 29  1  1  0
 25 13  1  0
 24 16  1  0
M  END
$$$$
