
     RDKit          3D

 34 38  0  0  0  0  0  0  0  0999 V2000
  185.9130  162.6662  141.9247 C   0  0  2  0  0  0  0  0  0  0  0  0
  185.7209  161.2668  142.4832 C   0  0  0  0  0  0  0  0  0  0  0  0
  185.4394  161.2584  143.9669 C   0  0  1  0  0  0  0  0  0  0  0  0
  186.7464  161.3948  144.7497 C   0  0  0  0  0  0  0  0  0  0  0  0
  184.4674  162.3348  144.3137 C   0  0  0  0  0  0  0  0  0  0  0  0
  183.7658  162.7444  143.0398 C   0  0  0  0  0  0  0  0  0  0  0  0
  184.7847  163.5768  142.2399 C   0  0  1  0  0  0  0  0  0  0  0  0
  185.2160  164.6606  143.2386 C   0  0  0  0  0  0  0  0  0  0  0  0
  184.0505  164.1700  141.1120 C   0  0  0  0  0  0  0  0  0  0  0  0
  184.5051  163.8824  139.7221 C   0  0  0  0  0  0  0  0  0  0  0  0
  186.0062  163.7131  139.6129 C   0  0  2  0  0  0  0  0  0  0  0  0
  186.5872  165.0235  139.9883 C   0  0  0  0  0  0  0  0  0  0  0  0
  186.3754  163.2543  138.2265 C   0  0  0  0  0  0  0  0  0  0  0  0
  185.4679  163.2647  137.2671 C   0  0  0  0  0  0  0  0  0  0  0  0
  185.6895  162.8383  135.8900 C   0  0  0  0  0  0  0  0  0  0  0  0
  186.8909  162.4020  135.5704 C   0  0  0  0  0  0  0  0  0  0  0  0
  187.1203  161.9680  134.1935 C   0  0  0  0  0  0  0  0  0  0  0  0
  186.0197  162.0619  133.2266 C   0  0  0  0  0  0  0  0  0  0  0  0
  188.3107  161.5010  133.8449 C   0  0  0  0  0  0  0  0  0  0  0  0
  188.5408  161.0820  132.5260 O   0  0  0  0  0  0  0  0  0  0  0  0
  189.3856  161.4212  134.8326 C   0  0  0  0  0  0  0  0  0  0  0  0
  190.5284  160.9690  134.4883 O   0  0  0  0  0  0  0  0  0  0  0  0
  189.1429  161.8574  136.1969 C   0  0  0  0  0  0  0  0  0  0  0  0
  187.9434  162.3366  136.5754 C   0  0  0  0  0  0  0  0  0  0  0  0
  187.7804  162.8173  137.9455 C   0  0  1  0  0  0  0  0  0  0  0  0
  188.7748  163.9800  138.2022 C   0  0  0  0  0  0  0  0  0  0  0  0
  188.1853  161.7859  138.9738 C   0  0  0  0  0  0  0  0  0  0  0  0
  187.8010  162.2224  140.3758 C   0  0  0  0  0  0  0  0  0  0  0  0
  186.3324  162.5527  140.5093 C   0  0  1  0  0  0  0  0  0  0  0  0
  185.6140  161.3338  139.9073 C   0  0  0  0  0  0  0  0  0  0  0  0
  184.8718  159.9485  144.3676 C   0  0  0  0  0  0  0  0  0  0  0  0
  183.9214  159.9399  145.1877 O   0  0  0  0  0  0  0  0  0  0  0  0
  185.3535  158.7430  143.8691 O   0  0  0  0  0  0  0  0  0  0  0  0
  185.9145  157.8195  144.7982 C   0  0  0  0  0  0  0  0  0  0  0  0
  1  2  1  6
  2  3  1  0
  3  4  1  1
  3  5  1  0
  5  6  1  0
  6  7  1  0
  7  8  1  1
  7  9  1  0
  9 10  1  0
 10 11  1  0
 11 12  1  1
 11 13  1  0
 13 14  2  0
 14 15  1  0
 15 16  2  0
 16 17  1  0
 17 18  1  0
 17 19  2  0
 19 20  1  0
 19 21  1  0
 21 22  2  0
 21 23  1  0
 23 24  2  0
 24 25  1  0
 25 26  1  6
 25 27  1  0
 27 28  1  0
 28 29  1  0
 29 30  1  6
  3 31  1  0
 31 32  2  0
 31 33  1  0
 33 34  1  0
  7  1  1  0
 29 11  1  0
 29  1  1  0
 25 13  1  0
 24 16  1  0
M  END
$$$$
