
     RDKit          3D

 49 55  0  0  0  0  0  0  0  0999 V2000
  160.2797  144.2922  128.5937 C   0  0  0  0  0  0  0  0  0  0  0  0
  161.7636  144.2413  128.4928 C   0  0  0  0  0  0  0  0  0  0  0  0
  162.4218  144.1232  129.6263 C   0  0  0  0  0  0  0  0  0  0  0  0
  162.4199  144.2178  127.2217 C   0  0  2  0  0  0  0  0  0  0  0  0
  162.9271  142.8306  126.7705 C   0  0  0  0  0  0  0  0  0  0  0  0
  163.8172  143.1514  125.5607 C   0  0  0  0  0  0  0  0  0  0  0  0
  163.6327  144.6508  125.3766 C   0  0  2  0  0  0  0  0  0  0  0  0
  164.7193  145.2863  124.6032 C   0  0  0  0  0  0  0  0  0  0  0  0
  164.5752  146.7892  124.8085 C   0  0  0  0  0  0  0  0  0  0  0  0
  164.7623  147.1196  126.2726 C   0  0  2  0  0  0  0  0  0  0  0  0
  166.1376  146.6490  126.5979 C   0  0  0  0  0  0  0  0  0  0  0  0
  163.7345  146.4237  127.1721 C   0  0  2  0  0  0  0  0  0  0  0  0
  164.2666  146.6684  128.5913 C   0  0  0  0  0  0  0  0  0  0  0  0
  164.3402  148.1318  128.9003 C   0  0  0  0  0  0  0  0  0  0  0  0
  164.9944  148.9483  127.8487 C   0  0  2  0  0  0  0  0  0  0  0  0
  165.0352  150.4244  128.1573 C   0  0  1  0  0  0  0  0  0  0  0  0
  163.7812  151.0370  128.6288 C   0  0  0  0  0  0  0  0  0  0  0  0
  165.9901  150.5020  129.3721 C   0  0  0  0  0  0  0  0  0  0  0  0
  166.4320  151.9086  129.5925 C   0  0  0  0  0  0  0  0  0  0  0  0
  166.4398  152.8558  128.6896 C   0  0  0  0  0  0  0  0  0  0  0  0
  166.9060  154.2021  129.0589 C   0  0  0  0  0  0  0  0  0  0  0  0
  166.0779  155.0782  129.7235 C   0  0  0  0  0  0  0  0  0  0  0  0
  166.4817  156.3668  130.0765 C   0  0  0  0  0  0  0  0  0  0  0  0
  167.7465  156.8139  129.7659 C   0  0  0  0  0  0  0  0  0  0  0  0
  168.5610  155.9315  129.1042 C   0  0  0  0  0  0  0  0  0  0  0  0
  168.1664  154.6599  128.7543 C   0  0  0  0  0  0  0  0  0  0  0  0
  168.1959  158.1613  130.1276 C   0  0  0  0  0  0  0  0  0  0  0  0
  167.3994  159.0604  130.7805 O   0  0  0  0  0  0  0  0  0  0  0  0
  169.3676  158.4824  129.8147 O   0  0  0  0  0  0  0  0  0  0  0  0
  166.0026  152.6029  127.2830 C   0  0  0  0  0  0  0  0  0  0  0  0
  164.8265  153.4145  126.8580 C   0  0  0  0  0  0  0  0  0  0  0  0
  167.1876  152.9581  126.4081 C   0  0  0  0  0  0  0  0  0  0  0  0
  165.7845  151.1203  127.0762 C   0  0  2  0  0  0  0  0  0  0  0  0
  165.2955  150.8340  125.6978 C   0  0  0  0  0  0  0  0  0  0  0  0
  165.2761  149.3454  125.3999 C   0  0  0  0  0  0  0  0  0  0  0  0
  164.5246  148.5995  126.4793 C   0  0  1  0  0  0  0  0  0  0  0  0
  163.0558  148.9081  126.2703 C   0  0  0  0  0  0  0  0  0  0  0  0
  163.6122  145.0218  126.8788 C   0  0  1  0  0  0  0  0  0  0  0  0
  162.3516  144.8858  124.8083 N   0  0  0  0  0  0  0  0  0  0  0  0
  162.2660  145.0238  123.4070 C   0  0  0  0  0  0  0  0  0  0  0  0
  162.4407  143.6394  122.7695 C   0  0  0  0  0  0  0  0  0  0  0  0
  161.2434  142.8842  122.8919 N   0  0  0  0  0  0  0  0  0  0  0  0
  160.4909  143.0470  124.0834 C   0  0  0  0  0  0  0  0  0  0  0  0
  159.0258  142.9886  123.7859 C   0  0  0  0  0  0  0  0  0  0  0  0
  158.7135  142.1202  122.2979 S   0  0  0  0  0  6  0  0  0  0  0  0
  157.4871  141.2425  122.4666 O   0  0  0  0  0  0  0  0  0  0  0  0
  158.3699  143.1320  121.2253 O   0  0  0  0  0  0  0  0  0  0  0  0
  160.0816  141.1648  121.7237 C   0  0  0  0  0  0  0  0  0  0  0  0
  161.3279  141.5045  122.5169 C   0  0  0  0  0  0  0  0  0  0  0  0
  1  2  1  0
  2  3  2  0
  4  2  1  1
  4  5  1  0
  5  6  1  0
  6  7  1  0
  7  8  1  0
  8  9  1  0
  9 10  1  0
 10 11  1  1
 10 12  1  0
 12 13  1  1
 13 14  1  0
 15 14  1  1
 15 16  1  0
 16 17  1  1
 16 18  1  0
 18 19  1  0
 19 20  2  0
 20 21  1  0
 21 22  2  0
 22 23  1  0
 23 24  2  0
 24 25  1  0
 25 26  2  0
 24 27  1  0
 27 28  1  0
 27 29  2  0
 20 30  1  0
 30 31  1  0
 30 32  1  0
 30 33  1  0
 33 34  1  6
 34 35  1  0
 35 36  1  0
 36 37  1  1
 12 38  1  0
  7 39  1  6
 39 40  1  0
 40 41  1  0
 41 42  1  0
 42 43  1  0
 43 44  1  0
 44 45  1  0
 45 46  2  0
 45 47  2  0
 45 48  1  0
 48 49  1  0
 38  4  1  6
 49 42  1  0
 38  7  1  0
 36 10  1  0
 36 15  1  0
 33 16  1  0
 26 21  1  0
M  END
$$$$
