
     RDKit          3D

 49 55  0  0  0  0  0  0  0  0999 V2000
  161.5103  150.8088  125.9042 C   0  0  0  0  0  0  0  0  0  0  0  0
  161.7306  149.6758  124.9647 C   0  0  0  0  0  0  0  0  0  0  0  0
  161.9631  149.9957  123.7094 C   0  0  0  0  0  0  0  0  0  0  0  0
  161.7876  148.3250  125.4325 C   0  0  2  0  0  0  0  0  0  0  0  0
  160.4671  147.7764  126.0160 C   0  0  0  0  0  0  0  0  0  0  0  0
  160.8913  146.4610  126.6858 C   0  0  0  0  0  0  0  0  0  0  0  0
  162.3629  146.3379  126.3177 C   0  0  2  0  0  0  0  0  0  0  0  0
  163.1184  145.4339  127.2091 C   0  0  0  0  0  0  0  0  0  0  0  0
  164.5951  145.6908  126.9357 C   0  0  0  0  0  0  0  0  0  0  0  0
  164.9340  147.1211  127.2923 C   0  0  2  0  0  0  0  0  0  0  0  0
  164.6140  147.2395  128.7423 C   0  0  0  0  0  0  0  0  0  0  0  0
  164.1240  148.1403  126.4831 C   0  0  2  0  0  0  0  0  0  0  0  0
  164.4155  149.4758  127.1821 C   0  0  0  0  0  0  0  0  0  0  0  0
  165.8761  149.8038  127.1418 C   0  0  0  0  0  0  0  0  0  0  0  0
  166.7662  148.6892  127.5489 C   0  0  2  0  0  0  0  0  0  0  0  0
  168.2359  149.0217  127.4749 C   0  0  1  0  0  0  0  0  0  0  0  0
  168.7048  149.6781  126.2424 C   0  0  0  0  0  0  0  0  0  0  0  0
  168.4087  150.0919  128.5788 C   0  0  0  0  0  0  0  0  0  0  0  0
  169.8537  150.2792  128.8945 C   0  0  0  0  0  0  0  0  0  0  0  0
  170.8022  149.4054  128.6727 C   0  0  0  0  0  0  0  0  0  0  0  0
  172.1888  149.7354  129.0398 C   0  0  0  0  0  0  0  0  0  0  0  0
  173.0137  150.3977  128.1589 C   0  0  0  0  0  0  0  0  0  0  0  0
  174.3375  150.7140  128.4681 C   0  0  0  0  0  0  0  0  0  0  0  0
  174.8735  150.3675  129.6883 C   0  0  0  0  0  0  0  0  0  0  0  0
  174.0413  149.7086  130.5561 C   0  0  0  0  0  0  0  0  0  0  0  0
  172.7353  149.3949  130.2549 C   0  0  0  0  0  0  0  0  0  0  0  0
  176.2597  150.6903  130.0384 C   0  0  0  0  0  0  0  0  0  0  0  0
  177.1099  151.3388  129.1867 O   0  0  0  0  0  0  0  0  0  0  0  0
  176.6626  150.3471  131.1759 O   0  0  0  0  0  0  0  0  0  0  0  0
  170.5127  148.0689  128.0697 C   0  0  0  0  0  0  0  0  0  0  0  0
  171.1942  147.8314  126.7652 C   0  0  0  0  0  0  0  0  0  0  0  0
  171.0010  147.0444  129.0736 C   0  0  0  0  0  0  0  0  0  0  0  0
  169.0167  147.8619  127.9843 C   0  0  2  0  0  0  0  0  0  0  0  0
  168.6882  146.5598  127.3381 C   0  0  0  0  0  0  0  0  0  0  0  0
  167.2084  146.2346  127.4359 C   0  0  0  0  0  0  0  0  0  0  0  0
  166.3776  147.3919  126.9295 C   0  0  1  0  0  0  0  0  0  0  0  0
  166.5257  147.3981  125.4214 C   0  0  0  0  0  0  0  0  0  0  0  0
  162.7191  147.8360  126.4711 C   0  0  1  0  0  0  0  0  0  0  0  0
  162.4606  145.9605  124.9512 N   0  0  0  0  0  0  0  0  0  0  0  0
  163.0382  144.7089  124.6514 C   0  0  0  0  0  0  0  0  0  0  0  0
  161.9460  143.6351  124.7377 C   0  0  0  0  0  0  0  0  0  0  0  0
  161.0148  143.7906  123.6758 N   0  0  0  0  0  0  0  0  0  0  0  0
  159.6365  143.7631  124.0102 C   0  0  0  0  0  0  0  0  0  0  0  0
  158.8750  144.7308  123.1606 C   0  0  0  0  0  0  0  0  0  0  0  0
  159.7243  145.0707  121.6676 S   0  0  0  0  0  6  0  0  0  0  0  0
  158.7329  145.1415  120.5209 O   0  0  0  0  0  0  0  0  0  0  0  0
  160.3444  146.4471  121.7812 O   0  0  0  0  0  0  0  0  0  0  0  0
  161.0137  143.9239  121.2982 C   0  0  0  0  0  0  0  0  0  0  0  0
  161.2761  143.0276  122.4922 C   0  0  0  0  0  0  0  0  0  0  0  0
  1  2  1  0
  2  3  2  0
  4  2  1  1
  4  5  1  0
  5  6  1  0
  6  7  1  0
  7  8  1  0
  8  9  1  0
  9 10  1  0
 10 11  1  1
 10 12  1  0
 12 13  1  1
 13 14  1  0
 15 14  1  6
 15 16  1  0
 16 17  1  6
 16 18  1  0
 18 19  1  0
 19 20  2  0
 20 21  1  0
 21 22  2  0
 22 23  1  0
 23 24  2  0
 24 25  1  0
 25 26  2  0
 24 27  1  0
 27 28  1  0
 27 29  2  0
 20 30  1  0
 30 31  1  0
 30 32  1  0
 30 33  1  0
 33 34  1  6
 34 35  1  0
 35 36  1  0
 36 37  1  6
 12 38  1  0
  7 39  1  6
 39 40  1  0
 40 41  1  0
 41 42  1  0
 42 43  1  0
 43 44  1  0
 44 45  1  0
 45 46  2  0
 45 47  2  0
 45 48  1  0
 48 49  1  0
 38  4  1  6
 49 42  1  0
 38  7  1  0
 36 10  1  0
 36 15  1  0
 33 16  1  0
 26 21  1  0
M  END
$$$$
