
     RDKit          3D

 49 55  0  0  0  0  0  0  0  0999 V2000
  172.4190  170.4668  111.0595 C   0  0  0  0  0  0  0  0  0  0  0  0
  173.7501  169.8386  110.8400 C   0  0  0  0  0  0  0  0  0  0  0  0
  174.5813  169.8614  111.8601 C   0  0  0  0  0  0  0  0  0  0  0  0
  174.0573  169.1598  109.6186 C   0  0  2  0  0  0  0  0  0  0  0  0
  173.7388  169.9501  108.3306 C   0  0  0  0  0  0  0  0  0  0  0  0
  173.8853  168.8988  107.2205 C   0  0  0  0  0  0  0  0  0  0  0  0
  174.3811  167.6680  107.9656 C   0  0  2  0  0  0  0  0  0  0  0  0
  174.1523  166.4055  107.2332 C   0  0  0  0  0  0  0  0  0  0  0  0
  174.3708  165.2782  108.2347 C   0  0  0  0  0  0  0  0  0  0  0  0
  173.3526  165.3865  109.3479 C   0  0  2  0  0  0  0  0  0  0  0  0
  172.0313  165.2718  108.6698 C   0  0  0  0  0  0  0  0  0  0  0  0
  173.4474  166.7136  110.1091 C   0  0  2  0  0  0  0  0  0  0  0  0
  172.1831  166.7257  110.9802 C   0  0  0  0  0  0  0  0  0  0  0  0
  172.1650  165.5676  111.9294 C   0  0  0  0  0  0  0  0  0  0  0  0
  172.4686  164.2573  111.3038 C   0  0  2  0  0  0  0  0  0  0  0  0
  172.4776  163.1030  112.2751 C   0  0  1  0  0  0  0  0  0  0  0  0
  173.2239  163.2995  113.5298 C   0  0  0  0  0  0  0  0  0  0  0  0
  170.9968  163.0014  112.7118 C   0  0  0  0  0  0  0  0  0  0  0  0
  170.7475  161.6984  113.3921 C   0  0  0  0  0  0  0  0  0  0  0  0
  171.4661  160.6141  113.2499 C   0  0  0  0  0  0  0  0  0  0  0  0
  171.0942  159.3985  113.9917 C   0  0  0  0  0  0  0  0  0  0  0  0
  171.6925  159.0943  115.1935 C   0  0  0  0  0  0  0  0  0  0  0  0
  171.3748  157.9435  115.9167 C   0  0  0  0  0  0  0  0  0  0  0  0
  170.4340  157.0564  115.4431 C   0  0  0  0  0  0  0  0  0  0  0  0
  169.8459  157.3714  114.2453 C   0  0  0  0  0  0  0  0  0  0  0  0
  170.1565  158.5053  113.5292 C   0  0  0  0  0  0  0  0  0  0  0  0
  170.0806  155.8424  116.1843 C   0  0  0  0  0  0  0  0  0  0  0  0
  170.7352  155.4458  117.3171 O   0  0  0  0  0  0  0  0  0  0  0  0
  169.1315  155.1516  115.7417 O   0  0  0  0  0  0  0  0  0  0  0  0
  172.6492  160.5707  112.3378 C   0  0  0  0  0  0  0  0  0  0  0  0
  173.9376  160.2795  113.0289 C   0  0  0  0  0  0  0  0  0  0  0  0
  172.3656  159.4665  111.3398 C   0  0  0  0  0  0  0  0  0  0  0  0
  172.7086  161.8418  111.5198 C   0  0  2  0  0  0  0  0  0  0  0  0
  173.9077  161.8584  110.6349 C   0  0  0  0  0  0  0  0  0  0  0  0
  173.8737  163.0170  109.6543 C   0  0  0  0  0  0  0  0  0  0  0  0
  173.6374  164.3205  110.3832 C   0  0  1  0  0  0  0  0  0  0  0  0
  174.9297  164.6494  111.1030 C   0  0  0  0  0  0  0  0  0  0  0  0
  173.5021  167.8469  109.2265 C   0  0  1  0  0  0  0  0  0  0  0  0
  175.7478  167.8601  108.3040 N   0  0  0  0  0  0  0  0  0  0  0  0
  176.7100  167.0713  107.6390 C   0  0  0  0  0  0  0  0  0  0  0  0
  178.0986  167.6634  107.9124 C   0  0  0  0  0  0  0  0  0  0  0  0
  178.8155  167.8243  106.6961 N   0  0  0  0  0  0  0  0  0  0  0  0
  178.8589  166.7134  105.8150 C   0  0  0  0  0  0  0  0  0  0  0  0
  178.8003  167.1741  104.3929 C   0  0  0  0  0  0  0  0  0  0  0  0
  179.3485  168.8299  104.2381 S   0  0  0  0  0  6  0  0  0  0  0  0
  180.1933  168.9732  102.9857 O   0  0  0  0  0  0  0  0  0  0  0  0
  178.1342  169.7113  104.0370 O   0  0  0  0  0  0  0  0  0  0  0  0
  180.2266  169.4297  105.6465 C   0  0  0  0  0  0  0  0  0  0  0  0
  180.0977  168.4541  106.7994 C   0  0  0  0  0  0  0  0  0  0  0  0
  1  2  1  0
  2  3  2  0
  4  2  1  1
  4  5  1  0
  5  6  1  0
  6  7  1  0
  7  8  1  0
  8  9  1  0
  9 10  1  0
 10 11  1  6
 10 12  1  0
 12 13  1  1
 13 14  1  0
 15 14  1  1
 15 16  1  0
 16 17  1  1
 16 18  1  0
 18 19  1  0
 19 20  2  0
 20 21  1  0
 21 22  2  0
 22 23  1  0
 23 24  2  0
 24 25  1  0
 25 26  2  0
 24 27  1  0
 27 28  1  0
 27 29  2  0
 20 30  1  0
 30 31  1  0
 30 32  1  0
 30 33  1  0
 33 34  1  1
 34 35  1  0
 35 36  1  0
 36 37  1  1
 12 38  1  0
  7 39  1  1
 39 40  1  0
 40 41  1  0
 41 42  1  0
 42 43  1  0
 43 44  1  0
 44 45  1  0
 45 46  2  0
 45 47  2  0
 45 48  1  0
 48 49  1  0
 38  4  1  1
 49 42  1  0
 38  7  1  0
 36 10  1  0
 36 15  1  0
 33 16  1  0
 26 21  1  0
M  END
$$$$
