
     RDKit          3D

 49 55  0  0  0  0  0  0  0  0999 V2000
  177.6595  159.6940  118.5452 C   0  0  0  0  0  0  0  0  0  0  0  0
  176.8843  160.0457  117.3245 C   0  0  0  0  0  0  0  0  0  0  0  0
  177.4665  160.8721  116.4817 C   0  0  0  0  0  0  0  0  0  0  0  0
  175.6228  159.4316  117.0447 C   0  0  2  0  0  0  0  0  0  0  0  0
  175.5985  157.8930  117.1756 C   0  0  0  0  0  0  0  0  0  0  0  0
  174.2516  157.5020  116.5496 C   0  0  0  0  0  0  0  0  0  0  0  0
  173.6050  158.8445  116.2406 C   0  0  2  0  0  0  0  0  0  0  0  0
  172.5381  158.7626  115.2219 C   0  0  0  0  0  0  0  0  0  0  0  0
  172.2497  160.1924  114.7810 C   0  0  0  0  0  0  0  0  0  0  0  0
  173.4870  160.7841  114.1434 C   0  0  2  0  0  0  0  0  0  0  0  0
  173.7793  159.8983  112.9820 C   0  0  0  0  0  0  0  0  0  0  0  0
  174.6847  160.8217  115.0993 C   0  0  2  0  0  0  0  0  0  0  0  0
  175.8663  161.1869  114.1897 C   0  0  0  0  0  0  0  0  0  0  0  0
  175.6614  162.5206  113.5402 C   0  0  0  0  0  0  0  0  0  0  0  0
  174.3271  162.7008  112.9176 C   0  0  2  0  0  0  0  0  0  0  0  0
  174.1216  164.0588  112.2936 C   0  0  1  0  0  0  0  0  0  0  0  0
  174.5128  165.2255  113.1034 C   0  0  0  0  0  0  0  0  0  0  0  0
  175.1158  164.0535  111.1082 C   0  0  0  0  0  0  0  0  0  0  0  0
  174.8017  165.1655  110.1660 C   0  0  0  0  0  0  0  0  0  0  0  0
  173.6422  165.7603  110.0479 C   0  0  0  0  0  0  0  0  0  0  0  0
  173.4845  166.8479  109.0688 C   0  0  0  0  0  0  0  0  0  0  0  0
  174.0677  168.0770  109.2791 C   0  0  0  0  0  0  0  0  0  0  0  0
  173.9274  169.1348  108.3794 C   0  0  0  0  0  0  0  0  0  0  0  0
  173.1865  168.9817  107.2288 C   0  0  0  0  0  0  0  0  0  0  0  0
  172.6114  167.7528  107.0315 C   0  0  0  0  0  0  0  0  0  0  0  0
  172.7475  166.7072  107.9165 C   0  0  0  0  0  0  0  0  0  0  0  0
  173.0260  170.0758  106.2667 C   0  0  0  0  0  0  0  0  0  0  0  0
  173.6250  171.2950  106.4206 O   0  0  0  0  0  0  0  0  0  0  0  0
  172.3023  169.8615  105.2646 O   0  0  0  0  0  0  0  0  0  0  0  0
  172.4635  165.3527  110.8714 C   0  0  0  0  0  0  0  0  0  0  0  0
  171.9406  166.4312  111.7578 C   0  0  0  0  0  0  0  0  0  0  0  0
  171.3825  164.9588  109.8854 C   0  0  0  0  0  0  0  0  0  0  0  0
  172.7880  164.0871  111.6338 C   0  0  2  0  0  0  0  0  0  0  0  0
  171.6530  163.6784  112.5090 C   0  0  0  0  0  0  0  0  0  0  0  0
  171.8702  162.3036  113.1154 C   0  0  0  0  0  0  0  0  0  0  0  0
  173.2189  162.2318  113.7950 C   0  0  1  0  0  0  0  0  0  0  0  0
  173.1005  163.0433  115.0692 C   0  0  0  0  0  0  0  0  0  0  0  0
  174.8898  159.5657  115.7678 C   0  0  1  0  0  0  0  0  0  0  0  0
  173.1519  159.4228  117.4570 N   0  0  0  0  0  0  0  0  0  0  0  0
  172.3419  158.6348  118.3014 C   0  0  0  0  0  0  0  0  0  0  0  0
  170.8741  158.8569  117.9147 C   0  0  0  0  0  0  0  0  0  0  0  0
  170.3159  159.9155  118.6808 N   0  0  0  0  0  0  0  0  0  0  0  0
  168.9482  160.2237  118.4643 C   0  0  0  0  0  0  0  0  0  0  0  0
  168.2914  160.6100  119.7518 C   0  0  0  0  0  0  0  0  0  0  0  0
  169.4651  161.1873  120.9159 S   0  0  0  0  0  6  0  0  0  0  0  0
  168.8977  162.3785  121.6653 O   0  0  0  0  0  0  0  0  0  0  0  0
  169.6817  160.0989  121.9457 O   0  0  0  0  0  0  0  0  0  0  0  0
  171.0335  161.5898  120.2144 C   0  0  0  0  0  0  0  0  0  0  0  0
  171.1059  161.1060  118.7797 C   0  0  0  0  0  0  0  0  0  0  0  0
  1  2  1  0
  2  3  2  0
  4  2  1  6
  4  5  1  0
  5  6  1  0
  6  7  1  0
  7  8  1  0
  8  9  1  0
  9 10  1  0
 10 11  1  6
 10 12  1  0
 12 13  1  6
 13 14  1  0
 15 14  1  1
 15 16  1  0
 16 17  1  1
 16 18  1  0
 18 19  1  0
 19 20  2  0
 20 21  1  0
 21 22  2  0
 22 23  1  0
 23 24  2  0
 24 25  1  0
 25 26  2  0
 24 27  1  0
 27 28  1  0
 27 29  2  0
 20 30  1  0
 30 31  1  0
 30 32  1  0
 30 33  1  0
 33 34  1  1
 34 35  1  0
 35 36  1  0
 36 37  1  1
 12 38  1  0
  7 39  1  1
 39 40  1  0
 40 41  1  0
 41 42  1  0
 42 43  1  0
 43 44  1  0
 44 45  1  0
 45 46  2  0
 45 47  2  0
 45 48  1  0
 48 49  1  0
 38  4  1  1
 49 42  1  0
 38  7  1  0
 36 10  1  0
 36 15  1  0
 33 16  1  0
 26 21  1  0
M  END
$$$$
