
     RDKit          3D

 49 55  0  0  0  0  0  0  0  0999 V2000
  175.1296  167.2230  106.7841 C   0  0  0  0  0  0  0  0  0  0  0  0
  174.9523  167.7922  108.1477 C   0  0  0  0  0  0  0  0  0  0  0  0
  175.9654  168.4809  108.6286 C   0  0  0  0  0  0  0  0  0  0  0  0
  173.7069  167.6781  108.8426 C   0  0  2  0  0  0  0  0  0  0  0  0
  173.0759  169.0172  109.2827 C   0  0  0  0  0  0  0  0  0  0  0  0
  171.9455  168.5859  110.2290 C   0  0  0  0  0  0  0  0  0  0  0  0
  171.9716  167.0670  110.1380 C   0  0  2  0  0  0  0  0  0  0  0  0
  171.3226  166.3982  111.2844 C   0  0  0  0  0  0  0  0  0  0  0  0
  171.7355  164.9329  111.2213 C   0  0  0  0  0  0  0  0  0  0  0  0
  173.2358  164.8232  111.3795 C   0  0  2  0  0  0  0  0  0  0  0  0
  173.5240  165.4194  112.7138 C   0  0  0  0  0  0  0  0  0  0  0  0
  174.0024  165.5730  110.2841 C   0  0  2  0  0  0  0  0  0  0  0  0
  175.4544  165.5633  110.7830 C   0  0  0  0  0  0  0  0  0  0  0  0
  175.9695  164.1651  110.9315 C   0  0  0  0  0  0  0  0  0  0  0  0
  175.0605  163.2515  111.6660 C   0  0  2  0  0  0  0  0  0  0  0  0
  175.5763  161.8386  111.7825 C   0  0  1  0  0  0  0  0  0  0  0  0
  176.0996  161.2214  110.5516 C   0  0  0  0  0  0  0  0  0  0  0  0
  176.8125  161.9917  112.7002 C   0  0  0  0  0  0  0  0  0  0  0  0
  177.2407  160.6600  113.2158 C   0  0  0  0  0  0  0  0  0  0  0  0
  176.4818  159.5979  113.3081 C   0  0  0  0  0  0  0  0  0  0  0  0
  177.0495  158.3483  113.8394 C   0  0  0  0  0  0  0  0  0  0  0  0
  177.0967  157.2099  113.0669 C   0  0  0  0  0  0  0  0  0  0  0  0
  177.6148  156.0044  113.5429 C   0  0  0  0  0  0  0  0  0  0  0  0
  178.1057  155.9113  114.8261 C   0  0  0  0  0  0  0  0  0  0  0  0
  178.0528  157.0522  115.5846 C   0  0  0  0  0  0  0  0  0  0  0  0
  177.5426  158.2429  115.1188 C   0  0  0  0  0  0  0  0  0  0  0  0
  178.6574  154.6581  115.3490 C   0  0  0  0  0  0  0  0  0  0  0  0
  178.6516  153.4899  114.6390 O   0  0  0  0  0  0  0  0  0  0  0  0
  179.1522  154.6819  116.5015 O   0  0  0  0  0  0  0  0  0  0  0  0
  175.0434  159.6235  112.9030 C   0  0  0  0  0  0  0  0  0  0  0  0
  174.7097  158.6888  111.7906 C   0  0  0  0  0  0  0  0  0  0  0  0
  174.2566  159.2236  114.1346 C   0  0  0  0  0  0  0  0  0  0  0  0
  174.6232  161.0460  112.6059 C   0  0  2  0  0  0  0  0  0  0  0  0
  173.2067  161.1053  112.1463 C   0  0  0  0  0  0  0  0  0  0  0  0
  172.7003  162.5334  112.0501 C   0  0  0  0  0  0  0  0  0  0  0  0
  173.6445  163.3750  111.2216 C   0  0  1  0  0  0  0  0  0  0  0  0
  173.4461  162.9494  109.7809 C   0  0  0  0  0  0  0  0  0  0  0  0
  173.5103  166.9097  110.0902 C   0  0  1  0  0  0  0  0  0  0  0  0
  171.4117  166.6755  108.8920 N   0  0  0  0  0  0  0  0  0  0  0  0
  170.0099  166.5390  108.8116 C   0  0  0  0  0  0  0  0  0  0  0  0
  169.4345  167.8004  108.1549 C   0  0  0  0  0  0  0  0  0  0  0  0
  168.3258  168.2840  108.9004 N   0  0  0  0  0  0  0  0  0  0  0  0
  167.6462  169.4206  108.3918 C   0  0  0  0  0  0  0  0  0  0  0  0
  166.1762  169.3044  108.6441 C   0  0  0  0  0  0  0  0  0  0  0  0
  165.8446  168.2290  109.9856 S   0  0  0  0  0  6  0  0  0  0  0  0
  164.7219  168.7997  110.8322 O   0  0  0  0  0  0  0  0  0  0  0  0
  165.3325  166.9196  109.4241 O   0  0  0  0  0  0  0  0  0  0  0  0
  167.2539  167.8753  110.9871 C   0  0  0  0  0  0  0  0  0  0  0  0
  168.5146  168.3840  110.3166 C   0  0  0  0  0  0  0  0  0  0  0  0
  1  2  1  0
  2  3  2  0
  4  2  1  1
  4  5  1  0
  5  6  1  0
  6  7  1  0
  7  8  1  0
  8  9  1  0
  9 10  1  0
 10 11  1  1
 10 12  1  0
 12 13  1  1
 13 14  1  0
 15 14  1  6
 15 16  1  0
 16 17  1  6
 16 18  1  0
 18 19  1  0
 19 20  2  0
 20 21  1  0
 21 22  2  0
 22 23  1  0
 23 24  2  0
 24 25  1  0
 25 26  2  0
 24 27  1  0
 27 28  1  0
 27 29  2  0
 20 30  1  0
 30 31  1  0
 30 32  1  0
 30 33  1  0
 33 34  1  6
 34 35  1  0
 35 36  1  0
 36 37  1  6
 12 38  1  0
  7 39  1  6
 39 40  1  0
 40 41  1  0
 41 42  1  0
 42 43  1  0
 43 44  1  0
 44 45  1  0
 45 46  2  0
 45 47  2  0
 45 48  1  0
 48 49  1  0
 38  4  1  6
 49 42  1  0
 38  7  1  0
 36 10  1  0
 36 15  1  0
 33 16  1  0
 26 21  1  0
M  END
$$$$
