
     RDKit          3D

 49 55  0  0  0  0  0  0  0  0999 V2000
  160.9078  147.3113  123.6161 C   0  0  0  0  0  0  0  0  0  0  0  0
  160.9008  146.9375  125.0566 C   0  0  0  0  0  0  0  0  0  0  0  0
  159.7434  147.0265  125.6767 C   0  0  0  0  0  0  0  0  0  0  0  0
  162.0704  146.4130  125.6922 C   0  0  2  0  0  0  0  0  0  0  0  0
  161.8500  145.1207  126.5085 C   0  0  0  0  0  0  0  0  0  0  0  0
  163.1624  144.9637  127.2908 C   0  0  0  0  0  0  0  0  0  0  0  0
  164.0268  146.0972  126.7578 C   0  0  2  0  0  0  0  0  0  0  0  0
  165.1382  146.4632  127.6597 C   0  0  0  0  0  0  0  0  0  0  0  0
  165.6722  147.8027  127.1675 C   0  0  0  0  0  0  0  0  0  0  0  0
  164.5881  148.8514  127.2806 C   0  0  2  0  0  0  0  0  0  0  0  0
  164.2472  148.8938  128.7301 C   0  0  0  0  0  0  0  0  0  0  0  0
  163.3454  148.5095  126.4508 C   0  0  2  0  0  0  0  0  0  0  0  0
  162.3010  149.5327  126.9193 C   0  0  0  0  0  0  0  0  0  0  0  0
  162.7528  150.9345  126.6486 C   0  0  0  0  0  0  0  0  0  0  0  0
  164.1398  151.2269  127.0859 C   0  0  2  0  0  0  0  0  0  0  0  0
  164.5941  152.6326  126.7804 C   0  0  1  0  0  0  0  0  0  0  0  0
  164.3292  153.1331  125.4205 C   0  0  0  0  0  0  0  0  0  0  0  0
  163.6974  153.4976  127.6977 C   0  0  0  0  0  0  0  0  0  0  0  0
  164.2437  154.8812  127.7979 C   0  0  0  0  0  0  0  0  0  0  0  0
  165.4859  155.2284  127.5772 C   0  0  0  0  0  0  0  0  0  0  0  0
  165.8769  156.6405  127.7160 C   0  0  0  0  0  0  0  0  0  0  0  0
  165.6799  157.5320  126.6858 C   0  0  0  0  0  0  0  0  0  0  0  0
  166.0512  158.8743  126.7774 C   0  0  0  0  0  0  0  0  0  0  0  0
  166.6387  159.3616  127.9235 C   0  0  0  0  0  0  0  0  0  0  0  0
  166.8291  158.4634  128.9417 C   0  0  0  0  0  0  0  0  0  0  0  0
  166.4642  157.1388  128.8552 C   0  0  0  0  0  0  0  0  0  0  0  0
  167.0355  160.7673  128.0460 C   0  0  0  0  0  0  0  0  0  0  0  0
  166.8501  161.6818  127.0469 O   0  0  0  0  0  0  0  0  0  0  0  0
  167.5668  161.1251  129.1247 O   0  0  0  0  0  0  0  0  0  0  0  0
  166.5271  154.2235  127.2031 C   0  0  0  0  0  0  0  0  0  0  0  0
  167.1443  154.4584  125.8665 C   0  0  0  0  0  0  0  0  0  0  0  0
  167.6024  154.3224  128.2659 C   0  0  0  0  0  0  0  0  0  0  0  0
  165.9597  152.8278  127.3384 C   0  0  2  0  0  0  0  0  0  0  0  0
  166.9540  151.7986  126.9220 C   0  0  0  0  0  0  0  0  0  0  0  0
  166.4869  150.3920  127.2513 C   0  0  0  0  0  0  0  0  0  0  0  0
  165.0982  150.1534  126.7029 C   0  0  1  0  0  0  0  0  0  0  0  0
  165.2485  150.0141  125.2015 C   0  0  0  0  0  0  0  0  0  0  0  0
  162.9040  147.1575  126.6599 C   0  0  1  0  0  0  0  0  0  0  0  0
  164.4754  145.7537  125.4539 N   0  0  0  0  0  0  0  0  0  0  0  0
  165.7064  145.0749  125.3365 C   0  0  0  0  0  0  0  0  0  0  0  0
  165.8778  144.1620  126.5575 C   0  0  0  0  0  0  0  0  0  0  0  0
  166.3728  142.8912  126.1590 N   0  0  0  0  0  0  0  0  0  0  0  0
  167.7811  142.7301  126.1035 C   0  0  0  0  0  0  0  0  0  0  0  0
  168.1657  141.3542  126.5478 C   0  0  0  0  0  0  0  0  0  0  0  0
  166.8371  140.2299  126.3561 S   0  0  0  0  0  6  0  0  0  0  0  0
  167.3616  138.9030  125.8393 O   0  0  0  0  0  0  0  0  0  0  0  0
  166.2526  139.9538  127.7251 O   0  0  0  0  0  0  0  0  0  0  0  0
  165.5372  140.8246  125.3214 C   0  0  0  0  0  0  0  0  0  0  0  0
  165.7381  142.2967  125.0210 C   0  0  0  0  0  0  0  0  0  0  0  0
  1  2  1  0
  2  3  2  0
  4  2  1  1
  4  5  1  0
  5  6  1  0
  6  7  1  0
  7  8  1  0
  8  9  1  0
  9 10  1  0
 10 11  1  1
 10 12  1  0
 12 13  1  1
 13 14  1  0
 15 14  1  6
 15 16  1  0
 16 17  1  6
 16 18  1  0
 18 19  1  0
 19 20  2  0
 20 21  1  0
 21 22  2  0
 22 23  1  0
 23 24  2  0
 24 25  1  0
 25 26  2  0
 24 27  1  0
 27 28  1  0
 27 29  2  0
 20 30  1  0
 30 31  1  0
 30 32  1  0
 30 33  1  0
 33 34  1  6
 34 35  1  0
 35 36  1  0
 36 37  1  6
 12 38  1  0
  7 39  1  6
 39 40  1  0
 40 41  1  0
 41 42  1  0
 42 43  1  0
 43 44  1  0
 44 45  1  0
 45 46  2  0
 45 47  2  0
 45 48  1  0
 48 49  1  0
 38  4  1  6
 49 42  1  0
 38  7  1  0
 36 10  1  0
 36 15  1  0
 33 16  1  0
 26 21  1  0
M  END
$$$$
