
     RDKit          3D

 49 55  0  0  0  0  0  0  0  0999 V2000
  162.5257  142.5548  125.4795 C   0  0  0  0  0  0  0  0  0  0  0  0
  162.9454  143.1980  124.2047 C   0  0  0  0  0  0  0  0  0  0  0  0
  163.8887  142.5827  123.5238 C   0  0  0  0  0  0  0  0  0  0  0  0
  162.2798  144.3628  123.7077 C   0  0  2  0  0  0  0  0  0  0  0  0
  161.7677  144.2562  122.2546 C   0  0  0  0  0  0  0  0  0  0  0  0
  161.3795  145.7006  121.9054 C   0  0  0  0  0  0  0  0  0  0  0  0
  161.5940  146.4481  123.2136 C   0  0  2  0  0  0  0  0  0  0  0  0
  161.7514  147.9066  123.0384 C   0  0  0  0  0  0  0  0  0  0  0  0
  162.2965  148.4445  124.3557 C   0  0  0  0  0  0  0  0  0  0  0  0
  163.6552  147.8374  124.6261 C   0  0  2  0  0  0  0  0  0  0  0  0
  164.4972  148.2549  123.4704 C   0  0  0  0  0  0  0  0  0  0  0  0
  163.6103  146.3086  124.7277 C   0  0  2  0  0  0  0  0  0  0  0  0
  165.0900  145.8990  124.7247 C   0  0  0  0  0  0  0  0  0  0  0  0
  165.8204  146.4890  125.8913 C   0  0  0  0  0  0  0  0  0  0  0  0
  165.5839  147.9394  126.0929 C   0  0  2  0  0  0  0  0  0  0  0  0
  166.3005  148.5157  127.2888 C   0  0  1  0  0  0  0  0  0  0  0  0
  166.1967  147.7610  128.5497 C   0  0  0  0  0  0  0  0  0  0  0  0
  167.7913  148.4078  126.8893 C   0  0  0  0  0  0  0  0  0  0  0  0
  168.6293  149.2508  127.7891 C   0  0  0  0  0  0  0  0  0  0  0  0
  168.2081  150.2770  128.4834 C   0  0  0  0  0  0  0  0  0  0  0  0
  169.1584  151.0144  129.3317 C   0  0  0  0  0  0  0  0  0  0  0  0
  169.5800  152.2782  128.9855 C   0  0  0  0  0  0  0  0  0  0  0  0
  170.4906  153.0004  129.7583 C   0  0  0  0  0  0  0  0  0  0  0  0
  171.0081  152.4627  130.9156 C   0  0  0  0  0  0  0  0  0  0  0  0
  170.5799  151.2035  131.2489 C   0  0  0  0  0  0  0  0  0  0  0  0
  169.6820  150.4881  130.4892 C   0  0  0  0  0  0  0  0  0  0  0  0
  171.9636  153.2013  131.7462 C   0  0  0  0  0  0  0  0  0  0  0  0
  172.3488  154.4844  131.4739 O   0  0  0  0  0  0  0  0  0  0  0  0
  172.4360  152.6102  132.7468 O   0  0  0  0  0  0  0  0  0  0  0  0
  166.7861  150.7334  128.4256 C   0  0  0  0  0  0  0  0  0  0  0  0
  166.0749  150.6701  129.7342 C   0  0  0  0  0  0  0  0  0  0  0  0
  166.8297  152.1741  127.9583 C   0  0  0  0  0  0  0  0  0  0  0  0
  166.0542  149.9825  127.3352 C   0  0  2  0  0  0  0  0  0  0  0  0
  164.6170  150.3732  127.2825 C   0  0  0  0  0  0  0  0  0  0  0  0
  163.9164  149.7974  126.0648 C   0  0  0  0  0  0  0  0  0  0  0  0
  164.1448  148.3052  125.9790 C   0  0  1  0  0  0  0  0  0  0  0  0
  163.2959  147.6785  127.0666 C   0  0  0  0  0  0  0  0  0  0  0  0
  162.8853  145.7098  123.6404 C   0  0  1  0  0  0  0  0  0  0  0  0
  160.5376  146.1185  124.1051 N   0  0  0  0  0  0  0  0  0  0  0  0
  159.2838  145.7877  123.5498 C   0  0  0  0  0  0  0  0  0  0  0  0
  158.1895  146.4877  124.3659 C   0  0  0  0  0  0  0  0  0  0  0  0
  157.2873  147.1664  123.5031 N   0  0  0  0  0  0  0  0  0  0  0  0
  156.8011  146.4516  122.3783 C   0  0  0  0  0  0  0  0  0  0  0  0
  155.3733  146.8099  122.1112 C   0  0  0  0  0  0  0  0  0  0  0  0
  154.9763  148.3793  122.7784 S   0  0  0  0  0  6  0  0  0  0  0  0
  154.0888  149.1370  121.8083 O   0  0  0  0  0  0  0  0  0  0  0  0
  154.1533  148.1641  124.0308 O   0  0  0  0  0  0  0  0  0  0  0  0
  156.3836  149.3506  123.2146 C   0  0  0  0  0  0  0  0  0  0  0  0
  157.6422  148.5084  123.1502 C   0  0  0  0  0  0  0  0  0  0  0  0
  1  2  1  0
  2  3  2  0
  4  2  1  6
  4  5  1  0
  5  6  1  0
  6  7  1  0
  7  8  1  0
  8  9  1  0
  9 10  1  0
 10 11  1  6
 10 12  1  0
 12 13  1  6
 13 14  1  0
 15 14  1  1
 15 16  1  0
 16 17  1  1
 16 18  1  0
 18 19  1  0
 19 20  2  0
 20 21  1  0
 21 22  2  0
 22 23  1  0
 23 24  2  0
 24 25  1  0
 25 26  2  0
 24 27  1  0
 27 28  1  0
 27 29  2  0
 20 30  1  0
 30 31  1  0
 30 32  1  0
 30 33  1  0
 33 34  1  1
 34 35  1  0
 35 36  1  0
 36 37  1  1
 12 38  1  0
  7 39  1  1
 39 40  1  0
 40 41  1  0
 41 42  1  0
 42 43  1  0
 43 44  1  0
 44 45  1  0
 45 46  2  0
 45 47  2  0
 45 48  1  0
 48 49  1  0
 38  4  1  1
 49 42  1  0
 38  7  1  0
 36 10  1  0
 36 15  1  0
 33 16  1  0
 26 21  1  0
M  END
$$$$
