
     RDKit          3D

 49 55  0  0  0  0  0  0  0  0999 V2000
  200.7295  135.5066  133.9152 C   0  0  0  0  0  0  0  0  0  0  0  0
  202.1313  135.0162  134.0116 C   0  0  0  0  0  0  0  0  0  0  0  0
  203.0511  135.7623  133.4377 C   0  0  0  0  0  0  0  0  0  0  0  0
  202.4588  133.8528  134.7771 C   0  0  2  0  0  0  0  0  0  0  0  0
  201.4125  133.4500  135.8391 C   0  0  0  0  0  0  0  0  0  0  0  0
  202.1421  132.3882  136.6753 C   0  0  0  0  0  0  0  0  0  0  0  0
  203.4641  132.2113  135.9424 C   0  0  2  0  0  0  0  0  0  0  0  0
  204.5257  131.6163  136.7801 C   0  0  0  0  0  0  0  0  0  0  0  0
  205.8369  131.8307  136.0342 C   0  0  0  0  0  0  0  0  0  0  0  0
  206.1018  133.3132  135.8932 C   0  0  2  0  0  0  0  0  0  0  0  0
  206.1738  133.8232  137.2909 C   0  0  0  0  0  0  0  0  0  0  0  0
  204.9977  134.0401  135.1171 C   0  0  2  0  0  0  0  0  0  0  0  0
  205.3199  135.5261  135.3299 C   0  0  0  0  0  0  0  0  0  0  0  0
  206.6708  135.8736  134.7850 C   0  0  0  0  0  0  0  0  0  0  0  0
  207.7535  134.9449  135.1922 C   0  0  2  0  0  0  0  0  0  0  0  0
  209.1035  135.2874  134.6126 C   0  0  1  0  0  0  0  0  0  0  0  0
  209.1484  135.5862  133.1708 C   0  0  0  0  0  0  0  0  0  0  0  0
  209.4503  136.6286  135.3016 C   0  0  0  0  0  0  0  0  0  0  0  0
  210.8976  136.9402  135.1258 C   0  0  0  0  0  0  0  0  0  0  0  0
  211.8403  136.0683  134.8741 C   0  0  0  0  0  0  0  0  0  0  0  0
  213.2301  136.5295  134.7255 C   0  0  0  0  0  0  0  0  0  0  0  0
  213.7780  136.7292  133.4786 C   0  0  0  0  0  0  0  0  0  0  0  0
  215.0961  137.1522  133.3002 C   0  0  0  0  0  0  0  0  0  0  0  0
  215.9087  137.3885  134.3866 C   0  0  0  0  0  0  0  0  0  0  0  0
  215.3506  137.1859  135.6224 C   0  0  0  0  0  0  0  0  0  0  0  0
  214.0511  136.7688  135.8023 C   0  0  0  0  0  0  0  0  0  0  0  0
  217.2953  137.8357  134.2264 C   0  0  0  0  0  0  0  0  0  0  0  0
  218.1210  138.0916  135.2855 O   0  0  0  0  0  0  0  0  0  0  0  0
  217.7227  137.9831  133.0562 O   0  0  0  0  0  0  0  0  0  0  0  0
  211.5461  134.6083  134.7495 C   0  0  0  0  0  0  0  0  0  0  0  0
  211.8720  134.0357  133.4122 C   0  0  0  0  0  0  0  0  0  0  0  0
  212.3954  133.9211  135.7993 C   0  0  0  0  0  0  0  0  0  0  0  0
  210.1142  134.3407  135.1573 C   0  0  2  0  0  0  0  0  0  0  0  0
  209.7672  132.9004  134.9952 C   0  0  0  0  0  0  0  0  0  0  0  0
  208.4131  132.5713  135.5979 C   0  0  0  0  0  0  0  0  0  0  0  0
  207.3557  133.5149  135.0709 C   0  0  1  0  0  0  0  0  0  0  0  0
  207.0899  133.1030  133.6371 C   0  0  0  0  0  0  0  0  0  0  0  0
  203.6835  133.7024  135.5916 C   0  0  1  0  0  0  0  0  0  0  0  0
  203.2301  131.4695  134.7532 N   0  0  0  0  0  0  0  0  0  0  0  0
  202.2030  130.5026  134.7693 C   0  0  0  0  0  0  0  0  0  0  0  0
  202.6374  129.3158  133.8996 C   0  0  0  0  0  0  0  0  0  0  0  0
  201.5775  128.3772  133.7791 N   0  0  0  0  0  0  0  0  0  0  0  0
  200.2528  128.8827  133.8256 C   0  0  0  0  0  0  0  0  0  0  0  0
  199.3717  128.1212  132.8865 C   0  0  0  0  0  0  0  0  0  0  0  0
  200.0199  126.5284  132.5574 S   0  0  0  0  0  6  0  0  0  0  0  0
  198.8913  125.5145  132.5242 O   0  0  0  0  0  0  0  0  0  0  0  0
  200.6218  126.5425  131.1683 O   0  0  0  0  0  0  0  0  0  0  0  0
  201.2755  126.0170  133.6871 C   0  0  0  0  0  0  0  0  0  0  0  0
  201.7034  127.1817  134.5577 C   0  0  0  0  0  0  0  0  0  0  0  0
  1  2  1  0
  2  3  2  0
  4  2  1  1
  4  5  1  0
  5  6  1  0
  6  7  1  0
  7  8  1  0
  8  9  1  0
  9 10  1  0
 10 11  1  1
 10 12  1  0
 12 13  1  1
 13 14  1  0
 15 14  1  6
 15 16  1  0
 16 17  1  6
 16 18  1  0
 18 19  1  0
 19 20  2  0
 20 21  1  0
 21 22  2  0
 22 23  1  0
 23 24  2  0
 24 25  1  0
 25 26  2  0
 24 27  1  0
 27 28  1  0
 27 29  2  0
 20 30  1  0
 30 31  1  0
 30 32  1  0
 30 33  1  0
 33 34  1  6
 34 35  1  0
 35 36  1  0
 36 37  1  6
 12 38  1  0
  7 39  1  6
 39 40  1  0
 40 41  1  0
 41 42  1  0
 42 43  1  0
 43 44  1  0
 44 45  1  0
 45 46  2  0
 45 47  2  0
 45 48  1  0
 48 49  1  0
 38  4  1  6
 49 42  1  0
 38  7  1  0
 36 10  1  0
 36 15  1  0
 33 16  1  0
 26 21  1  0
M  END
$$$$
