
     RDKit          3D

 49 55  0  0  0  0  0  0  0  0999 V2000
  172.3472  166.9504  108.5014 C   0  0  0  0  0  0  0  0  0  0  0  0
  172.7565  166.0395  107.3979 C   0  0  0  0  0  0  0  0  0  0  0  0
  171.9464  165.9766  106.3626 C   0  0  0  0  0  0  0  0  0  0  0  0
  174.0133  165.3566  107.4279 C   0  0  2  0  0  0  0  0  0  0  0  0
  174.4755  164.7730  106.0748 C   0  0  0  0  0  0  0  0  0  0  0  0
  175.6606  163.8747  106.4589 C   0  0  0  0  0  0  0  0  0  0  0  0
  175.8247  164.1284  107.9505 C   0  0  2  0  0  0  0  0  0  0  0  0
  176.5643  163.0583  108.6510 C   0  0  0  0  0  0  0  0  0  0  0  0
  176.3381  163.2799  110.1414 C   0  0  0  0  0  0  0  0  0  0  0  0
  174.8652  163.1396  110.4556 C   0  0  2  0  0  0  0  0  0  0  0  0
  174.5179  161.7499  110.0468 C   0  0  0  0  0  0  0  0  0  0  0  0
  173.9994  164.1506  109.6955 C   0  0  2  0  0  0  0  0  0  0  0  0
  172.5653  163.6606  109.9416 C   0  0  0  0  0  0  0  0  0  0  0  0
  172.2315  163.6651  111.4014 C   0  0  0  0  0  0  0  0  0  0  0  0
  173.2555  163.0298  112.2664 C   0  0  2  0  0  0  0  0  0  0  0  0
  172.9227  163.0676  113.7373 C   0  0  1  0  0  0  0  0  0  0  0  0
  172.4686  164.3595  114.2803 C   0  0  0  0  0  0  0  0  0  0  0  0
  171.6864  162.1431  113.8404 C   0  0  0  0  0  0  0  0  0  0  0  0
  171.4342  161.7750  115.2629 C   0  0  0  0  0  0  0  0  0  0  0  0
  172.3215  161.7948  116.2246 C   0  0  0  0  0  0  0  0  0  0  0  0
  171.9207  161.4027  117.5854 C   0  0  0  0  0  0  0  0  0  0  0  0
  172.3117  162.1440  118.6775 C   0  0  0  0  0  0  0  0  0  0  0  0
  171.9621  161.7939  119.9826 C   0  0  0  0  0  0  0  0  0  0  0  0
  171.1997  160.6734  120.2266 C   0  0  0  0  0  0  0  0  0  0  0  0
  170.8170  159.9443  119.1304 C   0  0  0  0  0  0  0  0  0  0  0  0
  171.1598  160.2864  117.8417 C   0  0  0  0  0  0  0  0  0  0  0  0
  170.8170  160.2855  121.5873 C   0  0  0  0  0  0  0  0  0  0  0  0
  171.0789  161.0603  122.6827 O   0  0  0  0  0  0  0  0  0  0  0  0
  170.2231  159.1896  121.7295 O   0  0  0  0  0  0  0  0  0  0  0  0
  173.7410  162.1898  115.9746 C   0  0  0  0  0  0  0  0  0  0  0  0
  174.1782  163.3951  116.7354 C   0  0  0  0  0  0  0  0  0  0  0  0
  174.5844  161.0057  116.4017 C   0  0  0  0  0  0  0  0  0  0  0  0
  173.9761  162.3309  114.4870 C   0  0  2  0  0  0  0  0  0  0  0  0
  175.3691  162.7766  114.2008 C   0  0  0  0  0  0  0  0  0  0  0  0
  175.6910  162.7171  112.7182 C   0  0  0  0  0  0  0  0  0  0  0  0
  174.6402  163.4535  111.9185 C   0  0  1  0  0  0  0  0  0  0  0  0
  174.8758  164.9310  112.1590 C   0  0  0  0  0  0  0  0  0  0  0  0
  174.3176  164.1981  108.2945 C   0  0  1  0  0  0  0  0  0  0  0  0
  176.4167  165.4073  108.1327 N   0  0  0  0  0  0  0  0  0  0  0  0
  176.7333  166.1585  106.9814 C   0  0  0  0  0  0  0  0  0  0  0  0
  177.0699  167.5919  107.4123 C   0  0  0  0  0  0  0  0  0  0  0  0
  178.4778  167.7804  107.4453 N   0  0  0  0  0  0  0  0  0  0  0  0
  179.2699  166.6892  107.8860 C   0  0  0  0  0  0  0  0  0  0  0  0
  180.5477  166.6266  107.1105 C   0  0  0  0  0  0  0  0  0  0  0  0
  180.9566  168.1882  106.4321 S   0  0  0  0  0  6  0  0  0  0  0  0
  182.4505  168.4238  106.5566 O   0  0  0  0  0  0  0  0  0  0  0  0
  180.6524  168.1518  104.9494 O   0  0  0  0  0  0  0  0  0  0  0  0
  180.0589  169.5342  107.1368 C   0  0  0  0  0  0  0  0  0  0  0  0
  178.9350  169.0142  108.0110 C   0  0  0  0  0  0  0  0  0  0  0  0
  1  2  1  0
  2  3  2  0
  4  2  1  6
  4  5  1  0
  5  6  1  0
  6  7  1  0
  7  8  1  0
  8  9  1  0
  9 10  1  0
 10 11  1  1
 10 12  1  0
 12 13  1  6
 13 14  1  0
 15 14  1  6
 15 16  1  0
 16 17  1  1
 16 18  1  0
 18 19  1  0
 19 20  2  0
 20 21  1  0
 21 22  2  0
 22 23  1  0
 23 24  2  0
 24 25  1  0
 25 26  2  0
 24 27  1  0
 27 28  1  0
 27 29  2  0
 20 30  1  0
 30 31  1  0
 30 32  1  0
 30 33  1  0
 33 34  1  1
 34 35  1  0
 35 36  1  0
 36 37  1  6
 12 38  1  0
  7 39  1  6
 39 40  1  0
 40 41  1  0
 41 42  1  0
 42 43  1  0
 43 44  1  0
 44 45  1  0
 45 46  2  0
 45 47  2  0
 45 48  1  0
 48 49  1  0
 38  4  1  1
 49 42  1  0
 38  7  1  0
 36 10  1  0
 36 15  1  0
 33 16  1  0
 26 21  1  0
M  END
$$$$
