
     RDKit          3D

 49 55  0  0  0  0  0  0  0  0999 V2000
  172.5300  149.4100  120.8634 C   0  0  0  0  0  0  0  0  0  0  0  0
  172.2584  147.9470  120.8348 C   0  0  0  0  0  0  0  0  0  0  0  0
  171.6459  147.4882  119.7641 C   0  0  0  0  0  0  0  0  0  0  0  0
  172.7345  147.0841  121.8719 C   0  0  2  0  0  0  0  0  0  0  0  0
  173.7620  146.0225  121.4222 C   0  0  0  0  0  0  0  0  0  0  0  0
  173.8633  145.0863  122.6356 C   0  0  0  0  0  0  0  0  0  0  0  0
  172.9886  145.7670  123.6785 C   0  0  2  0  0  0  0  0  0  0  0  0
  172.5354  144.8569  124.7504 C   0  0  0  0  0  0  0  0  0  0  0  0
  171.4174  145.5815  125.4897 C   0  0  0  0  0  0  0  0  0  0  0  0
  170.2643  145.8310  124.5432 C   0  0  2  0  0  0  0  0  0  0  0  0
  169.8390  144.4761  124.0935 C   0  0  0  0  0  0  0  0  0  0  0  0
  170.6631  146.6912  123.3387 C   0  0  2  0  0  0  0  0  0  0  0  0
  169.4533  146.5869  122.3992 C   0  0  0  0  0  0  0  0  0  0  0  0
  168.2133  147.1205  123.0472 C   0  0  0  0  0  0  0  0  0  0  0  0
  167.9717  146.6127  124.4199 C   0  0  2  0  0  0  0  0  0  0  0  0
  166.7365  147.1807  125.0738 C   0  0  1  0  0  0  0  0  0  0  0  0
  166.5528  148.6397  124.9868 C   0  0  0  0  0  0  0  0  0  0  0  0
  165.5870  146.5897  124.2234 C   0  0  0  0  0  0  0  0  0  0  0  0
  164.2853  146.7501  124.9323 C   0  0  0  0  0  0  0  0  0  0  0  0
  164.1339  146.9072  126.2226 C   0  0  0  0  0  0  0  0  0  0  0  0
  162.7790  147.0538  126.7784 C   0  0  0  0  0  0  0  0  0  0  0  0
  162.1512  145.9959  127.3961 C   0  0  0  0  0  0  0  0  0  0  0  0
  160.8620  146.0950  127.9216 C   0  0  0  0  0  0  0  0  0  0  0  0
  160.1609  147.2774  127.8383 C   0  0  0  0  0  0  0  0  0  0  0  0
  160.7977  148.3229  127.2210 C   0  0  0  0  0  0  0  0  0  0  0  0
  162.0691  148.2290  126.7015 C   0  0  0  0  0  0  0  0  0  0  0  0
  158.8071  147.4083  128.3844 C   0  0  0  0  0  0  0  0  0  0  0  0
  158.0742  148.5583  128.2872 O   0  0  0  0  0  0  0  0  0  0  0  0
  158.3186  146.4077  128.9624 O   0  0  0  0  0  0  0  0  0  0  0  0
  165.3030  146.9249  127.1535 C   0  0  0  0  0  0  0  0  0  0  0  0
  165.4626  148.2039  127.9026 C   0  0  0  0  0  0  0  0  0  0  0  0
  165.0650  145.8019  128.1425 C   0  0  0  0  0  0  0  0  0  0  0  0
  166.5576  146.5363  126.4031 C   0  0  2  0  0  0  0  0  0  0  0  0
  167.7554  146.5944  127.2880 C   0  0  0  0  0  0  0  0  0  0  0  0
  168.9843  146.0046  126.6196 C   0  0  0  0  0  0  0  0  0  0  0  0
  169.2005  146.6323  125.2611 C   0  0  1  0  0  0  0  0  0  0  0  0
  169.7118  148.0362  125.5141 C   0  0  0  0  0  0  0  0  0  0  0  0
  171.8710  146.2275  122.7123 C   0  0  1  0  0  0  0  0  0  0  0  0
  173.6809  146.9004  124.1841 N   0  0  0  0  0  0  0  0  0  0  0  0
  174.5394  146.7118  125.2874 C   0  0  0  0  0  0  0  0  0  0  0  0
  175.9869  146.9028  124.8166 C   0  0  0  0  0  0  0  0  0  0  0  0
  176.7153  145.6904  124.9535 N   0  0  0  0  0  0  0  0  0  0  0  0
  176.8788  144.8952  123.7901 C   0  0  0  0  0  0  0  0  0  0  0  0
  178.2301  144.2531  123.7841 C   0  0  0  0  0  0  0  0  0  0  0  0
  178.8817  144.1283  125.4045 S   0  0  0  0  0  6  0  0  0  0  0  0
  179.5769  142.7901  125.5737 O   0  0  0  0  0  0  0  0  0  0  0  0
  179.9509  145.1880  125.5651 O   0  0  0  0  0  0  0  0  0  0  0  0
  177.6853  144.3675  126.6795 C   0  0  0  0  0  0  0  0  0  0  0  0
  176.3875  144.8837  126.0905 C   0  0  0  0  0  0  0  0  0  0  0  0
  1  2  1  0
  2  3  2  0
  4  2  1  6
  4  5  1  0
  5  6  1  0
  6  7  1  0
  7  8  1  0
  8  9  1  0
  9 10  1  0
 10 11  1  6
 10 12  1  0
 12 13  1  6
 13 14  1  0
 15 14  1  6
 15 16  1  0
 16 17  1  1
 16 18  1  0
 18 19  1  0
 19 20  2  0
 20 21  1  0
 21 22  2  0
 22 23  1  0
 23 24  2  0
 24 25  1  0
 25 26  2  0
 24 27  1  0
 27 28  1  0
 27 29  2  0
 20 30  1  0
 30 31  1  0
 30 32  1  0
 30 33  1  0
 33 34  1  1
 34 35  1  0
 35 36  1  0
 36 37  1  1
 12 38  1  0
  7 39  1  1
 39 40  1  0
 40 41  1  0
 41 42  1  0
 42 43  1  0
 43 44  1  0
 44 45  1  0
 45 46  2  0
 45 47  2  0
 45 48  1  0
 48 49  1  0
 38  4  1  1
 49 42  1  0
 38  7  1  0
 36 10  1  0
 36 15  1  0
 33 16  1  0
 26 21  1  0
M  END
$$$$
