
     RDKit          3D

 49 55  0  0  0  0  0  0  0  0999 V2000
  101.5327  171.8329  162.1484 C   0  0  0  0  0  0  0  0  0  0  0  0
  102.8212  171.0978  162.0289 C   0  0  0  0  0  0  0  0  0  0  0  0
  103.4692  170.8701  163.1515 C   0  0  0  0  0  0  0  0  0  0  0  0
  103.2667  170.5823  160.7708 C   0  0  2  0  0  0  0  0  0  0  0  0
  102.8467  171.4100  159.5366 C   0  0  0  0  0  0  0  0  0  0  0  0
  103.1950  170.4924  158.3552 C   0  0  0  0  0  0  0  0  0  0  0  0
  103.8770  169.3060  159.0211 C   0  0  2  0  0  0  0  0  0  0  0  0
  103.8832  168.0869  158.1865 C   0  0  0  0  0  0  0  0  0  0  0  0
  104.2687  166.9347  159.1059 C   0  0  0  0  0  0  0  0  0  0  0  0
  103.2224  166.7789  160.1871 C   0  0  2  0  0  0  0  0  0  0  0  0
  101.9555  166.4991  159.4554 C   0  0  0  0  0  0  0  0  0  0  0  0
  103.0724  168.0365  161.0506 C   0  0  2  0  0  0  0  0  0  0  0  0
  101.8056  167.7646  161.8743 C   0  0  0  0  0  0  0  0  0  0  0  0
  101.9643  166.5465  162.7308 C   0  0  0  0  0  0  0  0  0  0  0  0
  102.5008  165.3614  162.0179 C   0  0  2  0  0  0  0  0  0  0  0  0
  102.6851  164.1499  162.8978 C   0  0  1  0  0  0  0  0  0  0  0  0
  103.3589  164.3663  164.1897 C   0  0  0  0  0  0  0  0  0  0  0  0
  101.2341  163.7652  163.2723 C   0  0  0  0  0  0  0  0  0  0  0  0
  101.1957  162.3878  163.8415 C   0  0  0  0  0  0  0  0  0  0  0  0
  102.0918  161.4552  163.6424 C   0  0  0  0  0  0  0  0  0  0  0  0
  101.9165  160.1379  164.2752 C   0  0  0  0  0  0  0  0  0  0  0  0
  101.6305  160.0322  165.6176 C   0  0  0  0  0  0  0  0  0  0  0  0
  101.4719  158.7998  166.2534 C   0  0  0  0  0  0  0  0  0  0  0  0
  101.5986  157.6254  165.5456 C   0  0  0  0  0  0  0  0  0  0  0  0
  101.8834  157.7449  164.2097 C   0  0  0  0  0  0  0  0  0  0  0  0
  102.0405  158.9585  163.5792 C   0  0  0  0  0  0  0  0  0  0  0  0
  101.4342  156.3187  166.1889 C   0  0  0  0  0  0  0  0  0  0  0  0
  101.7502  155.1408  165.5711 O   0  0  0  0  0  0  0  0  0  0  0  0
  100.9821  156.3044  167.3591 O   0  0  0  0  0  0  0  0  0  0  0  0
  103.2850  161.6861  162.7725 C   0  0  0  0  0  0  0  0  0  0  0  0
  104.5885  161.5606  163.4849 C   0  0  0  0  0  0  0  0  0  0  0  0
  103.2162  160.6349  161.6834 C   0  0  0  0  0  0  0  0  0  0  0  0
  103.1447  163.0114  162.0569 C   0  0  2  0  0  0  0  0  0  0  0  0
  104.3427  163.3016  161.2192 C   0  0  0  0  0  0  0  0  0  0  0  0
  104.1333  164.5140  160.3296 C   0  0  0  0  0  0  0  0  0  0  0  0
  103.6619  165.6953  161.1472 C   0  0  1  0  0  0  0  0  0  0  0  0
  104.8628  166.1773  161.9358 C   0  0  0  0  0  0  0  0  0  0  0  0
  102.9525  169.2310  160.2598 C   0  0  1  0  0  0  0  0  0  0  0  0
  105.1830  169.6972  159.4218 N   0  0  0  0  0  0  0  0  0  0  0  0
  105.6604  170.9505  158.9845 C   0  0  0  0  0  0  0  0  0  0  0  0
  105.6003  170.9870  157.4520 C   0  0  0  0  0  0  0  0  0  0  0  0
  106.8542  171.3884  156.9176 N   0  0  0  0  0  0  0  0  0  0  0  0
  107.9081  170.4393  156.9488 C   0  0  0  0  0  0  0  0  0  0  0  0
  108.7513  170.5569  155.7185 C   0  0  0  0  0  0  0  0  0  0  0  0
  108.6127  172.1488  155.0028 S   0  0  0  0  0  6  0  0  0  0  0  0
  109.9746  172.6116  154.5191 O   0  0  0  0  0  0  0  0  0  0  0  0
  107.7379  172.0375  153.7722 O   0  0  0  0  0  0  0  0  0  0  0  0
  107.8945  173.3560  156.0712 C   0  0  0  0  0  0  0  0  0  0  0  0
  107.3160  172.6882  157.3028 C   0  0  0  0  0  0  0  0  0  0  0  0
  1  2  1  0
  2  3  2  0
  4  2  1  1
  4  5  1  0
  5  6  1  0
  6  7  1  0
  7  8  1  0
  8  9  1  0
  9 10  1  0
 10 11  1  6
 10 12  1  0
 12 13  1  6
 13 14  1  0
 15 14  1  1
 15 16  1  0
 16 17  1  1
 16 18  1  0
 18 19  1  0
 19 20  2  0
 20 21  1  0
 21 22  2  0
 22 23  1  0
 23 24  2  0
 24 25  1  0
 25 26  2  0
 24 27  1  0
 27 28  1  0
 27 29  2  0
 20 30  1  0
 30 31  1  0
 30 32  1  0
 30 33  1  0
 33 34  1  1
 34 35  1  0
 35 36  1  0
 36 37  1  1
 12 38  1  0
  7 39  1  1
 39 40  1  0
 40 41  1  0
 41 42  1  0
 42 43  1  0
 43 44  1  0
 44 45  1  0
 45 46  2  0
 45 47  2  0
 45 48  1  0
 48 49  1  0
 38  4  1  1
 49 42  1  0
 38  7  1  0
 36 10  1  0
 36 15  1  0
 33 16  1  0
 26 21  1  0
M  END
$$$$
