
     RDKit          3D

 49 55  0  0  0  0  0  0  0  0999 V2000
  175.2369  159.1902  108.4729 C   0  0  0  0  0  0  0  0  0  0  0  0
  174.8887  160.0194  107.2871 C   0  0  0  0  0  0  0  0  0  0  0  0
  174.1219  159.4497  106.3818 C   0  0  0  0  0  0  0  0  0  0  0  0
  175.2854  161.3912  107.1993 C   0  0  2  0  0  0  0  0  0  0  0  0
  176.3825  161.6914  106.1546 C   0  0  0  0  0  0  0  0  0  0  0  0
  176.8025  163.1322  106.4812 C   0  0  0  0  0  0  0  0  0  0  0  0
  175.8340  163.5395  107.5821 C   0  0  2  0  0  0  0  0  0  0  0  0
  176.3107  164.6791  108.3926 C   0  0  0  0  0  0  0  0  0  0  0  0
  175.4254  164.7295  109.6317 C   0  0  0  0  0  0  0  0  0  0  0  0
  175.6009  163.4572  110.4305 C   0  0  2  0  0  0  0  0  0  0  0  0
  177.0467  163.4265  110.7877 C   0  0  0  0  0  0  0  0  0  0  0  0
  175.2219  162.2026  109.6353 C   0  0  2  0  0  0  0  0  0  0  0  0
  175.7265  161.0482  110.5128 C   0  0  0  0  0  0  0  0  0  0  0  0
  175.0585  161.0511  111.8531 C   0  0  0  0  0  0  0  0  0  0  0  0
  175.0401  162.3729  112.5261 C   0  0  2  0  0  0  0  0  0  0  0  0
  174.3378  162.3698  113.8613 C   0  0  1  0  0  0  0  0  0  0  0  0
  173.0239  161.7061  113.9166 C   0  0  0  0  0  0  0  0  0  0  0  0
  175.2587  161.4895  114.7393 C   0  0  0  0  0  0  0  0  0  0  0  0
  174.9183  161.6634  116.1803 C   0  0  0  0  0  0  0  0  0  0  0  0
  174.3078  162.6974  116.7002 C   0  0  0  0  0  0  0  0  0  0  0  0
  174.0391  162.7255  118.1471 C   0  0  0  0  0  0  0  0  0  0  0  0
  172.7487  162.7008  118.6260 C   0  0  0  0  0  0  0  0  0  0  0  0
  172.4568  162.7405  119.9903 C   0  0  0  0  0  0  0  0  0  0  0  0
  173.4693  162.8071  120.9213 C   0  0  0  0  0  0  0  0  0  0  0  0
  174.7494  162.8310  120.4310 C   0  0  0  0  0  0  0  0  0  0  0  0
  175.0413  162.7920  119.0862 C   0  0  0  0  0  0  0  0  0  0  0  0
  173.1895  162.8472  122.3595 C   0  0  0  0  0  0  0  0  0  0  0  0
  174.1519  163.0982  123.2974 O   0  0  0  0  0  0  0  0  0  0  0  0
  172.0070  162.6394  122.7235 O   0  0  0  0  0  0  0  0  0  0  0  0
  173.8889  163.8636  115.8645 C   0  0  0  0  0  0  0  0  0  0  0  0
  172.4180  164.1056  115.8546 C   0  0  0  0  0  0  0  0  0  0  0  0
  174.5825  165.0725  116.4589 C   0  0  0  0  0  0  0  0  0  0  0  0
  174.4590  163.7220  114.4705 C   0  0  2  0  0  0  0  0  0  0  0  0
  174.0180  164.8415  113.5911 C   0  0  0  0  0  0  0  0  0  0  0  0
  174.7462  164.8378  112.2589 C   0  0  0  0  0  0  0  0  0  0  0  0
  174.6493  163.4772  111.6066 C   0  0  1  0  0  0  0  0  0  0  0  0
  173.2256  163.3426  111.1054 C   0  0  0  0  0  0  0  0  0  0  0  0
  175.8188  162.1836  108.3277 C   0  0  1  0  0  0  0  0  0  0  0  0
  174.5596  163.7806  107.0016 N   0  0  0  0  0  0  0  0  0  0  0  0
  174.2048  165.1163  106.7187 C   0  0  0  0  0  0  0  0  0  0  0  0
  174.7822  165.4939  105.3484 C   0  0  0  0  0  0  0  0  0  0  0  0
  174.1637  164.7286  104.3235 N   0  0  0  0  0  0  0  0  0  0  0  0
  175.0149  164.0146  103.4414 C   0  0  0  0  0  0  0  0  0  0  0  0
  174.4005  162.7009  103.0743 C   0  0  0  0  0  0  0  0  0  0  0  0
  172.6610  162.7357  103.2711 S   0  0  0  0  0  6  0  0  0  0  0  0
  172.0020  161.9968  102.1210 O   0  0  0  0  0  0  0  0  0  0  0  0
  172.3136  161.9661  104.5277 O   0  0  0  0  0  0  0  0  0  0  0  0
  171.9887  164.3599  103.4268 C   0  0  0  0  0  0  0  0  0  0  0  0
  173.1016  165.3726  103.6103 C   0  0  0  0  0  0  0  0  0  0  0  0
  1  2  1  0
  2  3  2  0
  4  2  1  1
  4  5  1  0
  5  6  1  0
  6  7  1  0
  7  8  1  0
  8  9  1  0
  9 10  1  0
 10 11  1  1
 10 12  1  0
 12 13  1  1
 13 14  1  0
 15 14  1  6
 15 16  1  0
 16 17  1  6
 16 18  1  0
 18 19  1  0
 19 20  2  0
 20 21  1  0
 21 22  2  0
 22 23  1  0
 23 24  2  0
 24 25  1  0
 25 26  2  0
 24 27  1  0
 27 28  1  0
 27 29  2  0
 20 30  1  0
 30 31  1  0
 30 32  1  0
 30 33  1  0
 33 34  1  6
 34 35  1  0
 35 36  1  0
 36 37  1  6
 12 38  1  0
  7 39  1  6
 39 40  1  0
 40 41  1  0
 41 42  1  0
 42 43  1  0
 43 44  1  0
 44 45  1  0
 45 46  2  0
 45 47  2  0
 45 48  1  0
 48 49  1  0
 38  4  1  6
 49 42  1  0
 38  7  1  0
 36 10  1  0
 36 15  1  0
 33 16  1  0
 26 21  1  0
M  END
$$$$
