
     RDKit          3D

 49 55  0  0  0  0  0  0  0  0999 V2000
  152.1627  171.5170  126.1726 C   0  0  0  0  0  0  0  0  0  0  0  0
  151.0823  170.6620  125.6099 C   0  0  0  0  0  0  0  0  0  0  0  0
  150.0472  171.2923  125.0967 C   0  0  0  0  0  0  0  0  0  0  0  0
  151.2215  169.2397  125.5429 C   0  0  2  0  0  0  0  0  0  0  0  0
  151.3553  168.6598  124.1178 C   0  0  0  0  0  0  0  0  0  0  0  0
  151.1934  167.1474  124.3305 C   0  0  0  0  0  0  0  0  0  0  0  0
  151.1059  167.0128  125.8439 C   0  0  2  0  0  0  0  0  0  0  0  0
  150.4820  165.7489  126.2867 C   0  0  0  0  0  0  0  0  0  0  0  0
  150.1548  165.9221  127.7647 C   0  0  0  0  0  0  0  0  0  0  0  0
  149.1542  167.0437  127.9329 C   0  0  2  0  0  0  0  0  0  0  0  0
  147.9614  166.6121  127.1520 C   0  0  0  0  0  0  0  0  0  0  0  0
  149.6768  168.3861  127.4089 C   0  0  2  0  0  0  0  0  0  0  0  0
  148.4364  169.2909  127.4223 C   0  0  0  0  0  0  0  0  0  0  0  0
  147.8850  169.4381  128.8068 C   0  0  0  0  0  0  0  0  0  0  0  0
  147.7218  168.1594  129.5409 C   0  0  2  0  0  0  0  0  0  0  0  0
  147.1946  168.3230  130.9448 C   0  0  1  0  0  0  0  0  0  0  0  0
  147.8352  169.3566  131.7763 C   0  0  0  0  0  0  0  0  0  0  0  0
  145.7534  168.8389  130.7198 C   0  0  0  0  0  0  0  0  0  0  0  0
  144.9598  168.7182  131.9762 C   0  0  0  0  0  0  0  0  0  0  0  0
  145.2181  167.9020  132.9659 C   0  0  0  0  0  0  0  0  0  0  0  0
  144.3396  167.8976  134.1467 C   0  0  0  0  0  0  0  0  0  0  0  0
  143.5823  166.7913  134.4590 C   0  0  0  0  0  0  0  0  0  0  0  0
  142.7281  166.7572  135.5623 C   0  0  0  0  0  0  0  0  0  0  0  0
  142.6118  167.8503  136.3917 C   0  0  0  0  0  0  0  0  0  0  0  0
  143.3714  168.9452  136.0695 C   0  0  0  0  0  0  0  0  0  0  0  0
  144.2149  168.9827  134.9823 C   0  0  0  0  0  0  0  0  0  0  0  0
  141.7241  167.8391  137.5580 C   0  0  0  0  0  0  0  0  0  0  0  0
  141.4908  168.9461  138.3254 O   0  0  0  0  0  0  0  0  0  0  0  0
  141.1636  166.7543  137.8463 O   0  0  0  0  0  0  0  0  0  0  0  0
  146.3759  166.9579  132.9228 C   0  0  0  0  0  0  0  0  0  0  0  0
  147.3817  167.1819  134.0002 C   0  0  0  0  0  0  0  0  0  0  0  0
  145.7879  165.5703  133.0793 C   0  0  0  0  0  0  0  0  0  0  0  0
  146.9960  166.9750  131.5431 C   0  0  2  0  0  0  0  0  0  0  0  0
  148.1887  166.0839  131.4767 C   0  0  0  0  0  0  0  0  0  0  0  0
  148.6955  165.9187  130.0551 C   0  0  0  0  0  0  0  0  0  0  0  0
  148.9081  167.2689  129.4087 C   0  0  1  0  0  0  0  0  0  0  0  0
  150.1522  167.8568  130.0432 C   0  0  0  0  0  0  0  0  0  0  0  0
  150.2460  168.2749  126.0936 C   0  0  1  0  0  0  0  0  0  0  0  0
  152.4026  167.2009  126.3938 N   0  0  0  0  0  0  0  0  0  0  0  0
  152.9370  166.1688  127.1933 C   0  0  0  0  0  0  0  0  0  0  0  0
  153.3441  165.0058  126.2795 C   0  0  0  0  0  0  0  0  0  0  0  0
  154.5386  165.3230  125.5783 N   0  0  0  0  0  0  0  0  0  0  0  0
  155.7525  165.2857  126.3114 C   0  0  0  0  0  0  0  0  0  0  0  0
  156.8626  164.7649  125.4544 C   0  0  0  0  0  0  0  0  0  0  0  0
  156.5134  164.9933  123.7538 S   0  0  0  0  0  6  0  0  0  0  0  0
  157.7738  165.4244  123.0270 O   0  0  0  0  0  0  0  0  0  0  0  0
  156.1210  163.6529  123.1694 O   0  0  0  0  0  0  0  0  0  0  0  0
  155.1997  166.1284  123.4371 C   0  0  0  0  0  0  0  0  0  0  0  0
  154.4826  166.4736  124.7271 C   0  0  0  0  0  0  0  0  0  0  0  0
  1  2  1  0
  2  3  2  0
  4  2  1  6
  4  5  1  0
  5  6  1  0
  6  7  1  0
  7  8  1  0
  8  9  1  0
  9 10  1  0
 10 11  1  6
 10 12  1  0
 12 13  1  6
 13 14  1  0
 15 14  1  1
 15 16  1  0
 16 17  1  1
 16 18  1  0
 18 19  1  0
 19 20  2  0
 20 21  1  0
 21 22  2  0
 22 23  1  0
 23 24  2  0
 24 25  1  0
 25 26  2  0
 24 27  1  0
 27 28  1  0
 27 29  2  0
 20 30  1  0
 30 31  1  0
 30 32  1  0
 30 33  1  0
 33 34  1  1
 34 35  1  0
 35 36  1  0
 36 37  1  1
 12 38  1  0
  7 39  1  1
 39 40  1  0
 40 41  1  0
 41 42  1  0
 42 43  1  0
 43 44  1  0
 44 45  1  0
 45 46  2  0
 45 47  2  0
 45 48  1  0
 48 49  1  0
 38  4  1  1
 49 42  1  0
 38  7  1  0
 36 10  1  0
 36 15  1  0
 33 16  1  0
 26 21  1  0
M  END
$$$$
