
     RDKit          3D

 49 55  0  0  0  0  0  0  0  0999 V2000
  167.2258  148.7769  130.4950 C   0  0  0  0  0  0  0  0  0  0  0  0
  168.4133  148.4061  129.6782 C   0  0  0  0  0  0  0  0  0  0  0  0
  169.2141  147.4969  130.1923 C   0  0  0  0  0  0  0  0  0  0  0  0
  168.6051  148.9389  128.3644 C   0  0  2  0  0  0  0  0  0  0  0  0
  169.5773  150.1357  128.2770 C   0  0  0  0  0  0  0  0  0  0  0  0
  169.3635  150.6668  126.8519 C   0  0  0  0  0  0  0  0  0  0  0  0
  168.3960  149.6617  126.2438 C   0  0  2  0  0  0  0  0  0  0  0  0
  167.6672  150.1834  125.0694 C   0  0  0  0  0  0  0  0  0  0  0  0
  166.5197  149.2160  124.8070 C   0  0  0  0  0  0  0  0  0  0  0  0
  165.5843  149.2069  125.9956 C   0  0  2  0  0  0  0  0  0  0  0  0
  165.1037  150.6118  126.1144 C   0  0  0  0  0  0  0  0  0  0  0  0
  166.2780  148.7699  127.2908 C   0  0  2  0  0  0  0  0  0  0  0  0
  165.2484  149.0929  128.3830 C   0  0  0  0  0  0  0  0  0  0  0  0
  163.9773  148.3289  128.1759 C   0  0  0  0  0  0  0  0  0  0  0  0
  163.4453  148.3873  126.7924 C   0  0  2  0  0  0  0  0  0  0  0  0
  162.1816  147.5890  126.5887 C   0  0  1  0  0  0  0  0  0  0  0  0
  162.1718  146.2167  127.1243 C   0  0  0  0  0  0  0  0  0  0  0  0
  161.1437  148.3515  127.4461 C   0  0  0  0  0  0  0  0  0  0  0  0
  159.7620  147.9215  127.0875 C   0  0  0  0  0  0  0  0  0  0  0  0
  159.4032  147.3760  125.9534 C   0  0  0  0  0  0  0  0  0  0  0  0
  157.9949  147.0026  125.7449 C   0  0  0  0  0  0  0  0  0  0  0  0
  157.1498  147.8124  125.0203 C   0  0  0  0  0  0  0  0  0  0  0  0
  155.8059  147.4967  124.8148 C   0  0  0  0  0  0  0  0  0  0  0  0
  155.2695  146.3424  125.3402 C   0  0  0  0  0  0  0  0  0  0  0  0
  156.1219  145.5450  126.0594 C   0  0  0  0  0  0  0  0  0  0  0  0
  157.4479  145.8529  126.2643 C   0  0  0  0  0  0  0  0  0  0  0  0
  153.8622  145.9867  125.1367 C   0  0  0  0  0  0  0  0  0  0  0  0
  152.9216  146.8853  124.7163 O   0  0  0  0  0  0  0  0  0  0  0  0
  153.5284  144.7990  125.3641 O   0  0  0  0  0  0  0  0  0  0  0  0
  160.3852  147.1361  124.8526 C   0  0  0  0  0  0  0  0  0  0  0  0
  160.5452  145.7003  124.4846 C   0  0  0  0  0  0  0  0  0  0  0  0
  159.8591  147.8961  123.6521 C   0  0  0  0  0  0  0  0  0  0  0  0
  161.7040  147.7936  125.1943 C   0  0  2  0  0  0  0  0  0  0  0  0
  162.7265  147.5305  124.1424 C   0  0  0  0  0  0  0  0  0  0  0  0
  163.9845  148.3536  124.3549 C   0  0  0  0  0  0  0  0  0  0  0  0
  164.5018  148.1755  125.7644 C   0  0  1  0  0  0  0  0  0  0  0  0
  165.1065  146.7874  125.8268 C   0  0  0  0  0  0  0  0  0  0  0  0
  167.5212  149.4593  127.5042 C   0  0  1  0  0  0  0  0  0  0  0  0
  169.1046  148.4640  125.9560 N   0  0  0  0  0  0  0  0  0  0  0  0
  169.5317  148.2523  124.6283 C   0  0  0  0  0  0  0  0  0  0  0  0
  170.6736  149.2300  124.3221 C   0  0  0  0  0  0  0  0  0  0  0  0
  171.9232  148.6602  124.6863 N   0  0  0  0  0  0  0  0  0  0  0  0
  172.0520  147.2516  124.5776 C   0  0  0  0  0  0  0  0  0  0  0  0
  173.4295  146.8885  124.1207 C   0  0  0  0  0  0  0  0  0  0  0  0
  174.5777  148.1569  124.4929 S   0  0  0  0  0  6  0  0  0  0  0  0
  175.8798  147.5425  124.9723 O   0  0  0  0  0  0  0  0  0  0  0  0
  174.8998  148.8922  123.2093 O   0  0  0  0  0  0  0  0  0  0  0  0
  173.9866  149.3397  125.6616 C   0  0  0  0  0  0  0  0  0  0  0  0
  172.5036  149.1410  125.9042 C   0  0  0  0  0  0  0  0  0  0  0  0
  1  2  1  0
  2  3  2  0
  4  2  1  1
  4  5  1  0
  5  6  1  0
  6  7  1  0
  7  8  1  0
  8  9  1  0
  9 10  1  0
 10 11  1  1
 10 12  1  0
 12 13  1  1
 13 14  1  0
 15 14  1  1
 15 16  1  0
 16 17  1  1
 16 18  1  0
 18 19  1  0
 19 20  2  0
 20 21  1  0
 21 22  2  0
 22 23  1  0
 23 24  2  0
 24 25  1  0
 25 26  2  0
 24 27  1  0
 27 28  1  0
 27 29  2  0
 20 30  1  0
 30 31  1  0
 30 32  1  0
 30 33  1  0
 33 34  1  6
 34 35  1  0
 35 36  1  0
 36 37  1  6
 12 38  1  0
  7 39  1  6
 39 40  1  0
 40 41  1  0
 41 42  1  0
 42 43  1  0
 43 44  1  0
 44 45  1  0
 45 46  2  0
 45 47  2  0
 45 48  1  0
 48 49  1  0
 38  4  1  1
 49 42  1  0
 38  7  1  0
 36 10  1  0
 36 15  1  0
 33 16  1  0
 26 21  1  0
M  END
$$$$
