
     RDKit          3D

 49 55  0  0  0  0  0  0  0  0999 V2000
  182.7872  160.7986  134.2484 C   0  0  0  0  0  0  0  0  0  0  0  0
  183.3053  159.9656  135.3676 C   0  0  0  0  0  0  0  0  0  0  0  0
  182.4842  159.0551  135.8459 C   0  0  0  0  0  0  0  0  0  0  0  0
  184.6577  160.0878  135.8184 C   0  0  2  0  0  0  0  0  0  0  0  0
  185.5662  158.8794  135.5032 C   0  0  0  0  0  0  0  0  0  0  0  0
  186.8275  159.1536  136.3356 C   0  0  0  0  0  0  0  0  0  0  0  0
  186.5611  160.5267  136.9352 C   0  0  2  0  0  0  0  0  0  0  0  0
  187.3797  160.8152  138.1307 C   0  0  0  0  0  0  0  0  0  0  0  0
  186.7583  162.0367  138.7966 C   0  0  0  0  0  0  0  0  0  0  0  0
  185.3494  161.7094  139.2389 C   0  0  2  0  0  0  0  0  0  0  0  0
  185.5023  160.5787  140.1964 C   0  0  0  0  0  0  0  0  0  0  0  0
  184.4431  161.3007  138.0721 C   0  0  2  0  0  0  0  0  0  0  0  0
  183.1822  160.7602  138.7615 C   0  0  0  0  0  0  0  0  0  0  0  0
  182.5271  161.8132  139.6010 C   0  0  0  0  0  0  0  0  0  0  0  0
  183.4532  162.5454  140.4990 C   0  0  2  0  0  0  0  0  0  0  0  0
  182.7873  163.6240  141.3169 C   0  0  1  0  0  0  0  0  0  0  0  0
  181.8823  164.5368  140.5974 C   0  0  0  0  0  0  0  0  0  0  0  0
  181.8635  162.8238  142.2657 C   0  0  0  0  0  0  0  0  0  0  0  0
  181.3953  163.6918  143.3838 C   0  0  0  0  0  0  0  0  0  0  0  0
  181.9918  164.7764  143.8084 C   0  0  0  0  0  0  0  0  0  0  0  0
  181.4062  165.5320  144.9275 C   0  0  0  0  0  0  0  0  0  0  0  0
  180.1732  166.1318  144.8056 C   0  0  0  0  0  0  0  0  0  0  0  0
  179.5942  166.8675  145.8408 C   0  0  0  0  0  0  0  0  0  0  0  0
  180.2494  167.0211  147.0422 C   0  0  0  0  0  0  0  0  0  0  0  0
  181.4762  166.4186  147.1503 C   0  0  0  0  0  0  0  0  0  0  0  0
  182.0506  165.6923  146.1317 C   0  0  0  0  0  0  0  0  0  0  0  0
  179.6620  167.7864  148.1457 C   0  0  0  0  0  0  0  0  0  0  0  0
  178.4427  168.3985  148.0597 O   0  0  0  0  0  0  0  0  0  0  0  0
  180.3253  167.8699  149.2073 O   0  0  0  0  0  0  0  0  0  0  0  0
  183.2661  165.2620  143.1967 C   0  0  0  0  0  0  0  0  0  0  0  0
  183.1650  166.6142  142.5772 C   0  0  0  0  0  0  0  0  0  0  0  0
  184.2770  165.3116  144.3243 C   0  0  0  0  0  0  0  0  0  0  0  0
  183.7957  164.2243  142.2319 C   0  0  2  0  0  0  0  0  0  0  0  0
  185.0399  164.6966  141.5611 C   0  0  0  0  0  0  0  0  0  0  0  0
  185.7043  163.5943  140.7558 C   0  0  0  0  0  0  0  0  0  0  0  0
  184.7101  162.9548  139.8131 C   0  0  1  0  0  0  0  0  0  0  0  0
  184.4685  163.9557  138.7014 C   0  0  0  0  0  0  0  0  0  0  0  0
  185.0556  160.3149  137.2240 C   0  0  1  0  0  0  0  0  0  0  0  0
  186.7198  161.5066  135.9183 N   0  0  0  0  0  0  0  0  0  0  0  0
  187.5119  161.1746  134.7992 C   0  0  0  0  0  0  0  0  0  0  0  0
  188.7871  160.4797  135.2937 C   0  0  0  0  0  0  0  0  0  0  0  0
  189.9379  161.1889  134.8560 N   0  0  0  0  0  0  0  0  0  0  0  0
  190.8587  160.4900  134.0337 C   0  0  0  0  0  0  0  0  0  0  0  0
  191.4316  161.4057  132.9986 C   0  0  0  0  0  0  0  0  0  0  0  0
  191.3291  163.0791  133.5037 S   0  0  0  0  0  6  0  0  0  0  0  0
  192.6025  163.8083  133.1168 O   0  0  0  0  0  0  0  0  0  0  0  0
  190.2079  163.7374  132.7281 O   0  0  0  0  0  0  0  0  0  0  0  0
  190.9955  163.2905  135.2237 C   0  0  0  0  0  0  0  0  0  0  0  0
  190.6166  161.9637  135.8512 C   0  0  0  0  0  0  0  0  0  0  0  0
  1  2  1  0
  2  3  2  0
  4  2  1  1
  4  5  1  0
  5  6  1  0
  6  7  1  0
  7  8  1  0
  8  9  1  0
  9 10  1  0
 10 11  1  1
 10 12  1  0
 12 13  1  1
 13 14  1  0
 15 14  1  6
 15 16  1  0
 16 17  1  6
 16 18  1  0
 18 19  1  0
 19 20  2  0
 20 21  1  0
 21 22  2  0
 22 23  1  0
 23 24  2  0
 24 25  1  0
 25 26  2  0
 24 27  1  0
 27 28  1  0
 27 29  2  0
 20 30  1  0
 30 31  1  0
 30 32  1  0
 30 33  1  0
 33 34  1  6
 34 35  1  0
 35 36  1  0
 36 37  1  6
 12 38  1  0
  7 39  1  6
 39 40  1  0
 40 41  1  0
 41 42  1  0
 42 43  1  0
 43 44  1  0
 44 45  1  0
 45 46  2  0
 45 47  2  0
 45 48  1  0
 48 49  1  0
 38  4  1  6
 49 42  1  0
 38  7  1  0
 36 10  1  0
 36 15  1  0
 33 16  1  0
 26 21  1  0
M  END
$$$$
