
     RDKit          3D

 49 55  0  0  0  0  0  0  0  0999 V2000
  188.4751  177.0877  148.0276 C   0  0  0  0  0  0  0  0  0  0  0  0
  187.9306  177.3679  149.3841 C   0  0  0  0  0  0  0  0  0  0  0  0
  186.7042  176.9516  149.6178 C   0  0  0  0  0  0  0  0  0  0  0  0
  188.7424  177.9639  150.4003 C   0  0  2  0  0  0  0  0  0  0  0  0
  188.5592  179.4870  150.5774 C   0  0  0  0  0  0  0  0  0  0  0  0
  189.7274  179.8838  151.4922 C   0  0  0  0  0  0  0  0  0  0  0  0
  190.3748  178.5496  151.8338 C   0  0  2  0  0  0  0  0  0  0  0  0
  191.7716  178.6757  152.2985 C   0  0  0  0  0  0  0  0  0  0  0  0
  192.3698  177.2750  152.2574 C   0  0  0  0  0  0  0  0  0  0  0  0
  192.3748  176.7690  150.8320 C   0  0  2  0  0  0  0  0  0  0  0  0
  193.2116  177.7471  150.0823 C   0  0  0  0  0  0  0  0  0  0  0  0
  190.9690  176.6955  150.2255 C   0  0  2  0  0  0  0  0  0  0  0  0
  191.2279  176.4340  148.7349 C   0  0  0  0  0  0  0  0  0  0  0  0
  191.9649  175.1469  148.5281 C   0  0  0  0  0  0  0  0  0  0  0  0
  193.1536  174.9744  149.3985 C   0  0  2  0  0  0  0  0  0  0  0  0
  193.8699  173.6612  149.2027 C   0  0  1  0  0  0  0  0  0  0  0  0
  193.0330  172.4495  149.1682 C   0  0  0  0  0  0  0  0  0  0  0  0
  194.4409  173.7840  147.7700 C   0  0  0  0  0  0  0  0  0  0  0  0
  195.4755  172.7366  147.5350 C   0  0  0  0  0  0  0  0  0  0  0  0
  196.1593  172.1184  148.4637 C   0  0  0  0  0  0  0  0  0  0  0  0
  197.1510  171.1026  148.0752 C   0  0  0  0  0  0  0  0  0  0  0  0
  197.8793  171.2347  146.9145 C   0  0  0  0  0  0  0  0  0  0  0  0
  198.8172  170.2844  146.5081 C   0  0  0  0  0  0  0  0  0  0  0  0
  199.0502  169.1607  147.2692 C   0  0  0  0  0  0  0  0  0  0  0  0
  198.3185  169.0415  148.4225 C   0  0  0  0  0  0  0  0  0  0  0  0
  197.3926  169.9766  148.8266 C   0  0  0  0  0  0  0  0  0  0  0  0
  200.0315  168.1492  146.8661 C   0  0  0  0  0  0  0  0  0  0  0  0
  200.7666  168.2429  145.7173 O   0  0  0  0  0  0  0  0  0  0  0  0
  200.1876  167.1621  147.6244 O   0  0  0  0  0  0  0  0  0  0  0  0
  195.9726  172.4287  149.9137 C   0  0  0  0  0  0  0  0  0  0  0  0
  195.4967  171.2722  150.7253 C   0  0  0  0  0  0  0  0  0  0  0  0
  197.3311  172.8630  150.4252 C   0  0  0  0  0  0  0  0  0  0  0  0
  195.0831  173.6430  150.0643 C   0  0  2  0  0  0  0  0  0  0  0  0
  194.8302  173.9518  151.5001 C   0  0  0  0  0  0  0  0  0  0  0  0
  194.1231  175.2835  151.6785 C   0  0  0  0  0  0  0  0  0  0  0  0
  192.8830  175.3440  150.8155 C   0  0  1  0  0  0  0  0  0  0  0  0
  191.8608  174.4367  151.4699 C   0  0  0  0  0  0  0  0  0  0  0  0
  190.2192  177.9037  150.4363 C   0  0  1  0  0  0  0  0  0  0  0  0
  189.5499  177.8693  152.7698 N   0  0  0  0  0  0  0  0  0  0  0  0
  189.7583  178.1243  154.1415 C   0  0  0  0  0  0  0  0  0  0  0  0
  189.0694  177.0193  154.9526 C   0  0  0  0  0  0  0  0  0  0  0  0
  187.9528  177.5457  155.6562 N   0  0  0  0  0  0  0  0  0  0  0  0
  187.3522  178.7213  155.1368 C   0  0  0  0  0  0  0  0  0  0  0  0
  185.8684  178.6734  155.3219 C   0  0  0  0  0  0  0  0  0  0  0  0
  185.4255  177.5964  156.6294 S   0  0  0  0  0  6  0  0  0  0  0  0
  184.2946  178.2090  157.4348 O   0  0  0  0  0  0  0  0  0  0  0  0
  184.8768  176.3217  156.0244 O   0  0  0  0  0  0  0  0  0  0  0  0
  186.7696  177.1600  157.6864 C   0  0  0  0  0  0  0  0  0  0  0  0
  188.0822  177.6161  157.0808 C   0  0  0  0  0  0  0  0  0  0  0  0
  1  2  1  0
  2  3  2  0
  4  2  1  6
  4  5  1  0
  5  6  1  0
  6  7  1  0
  7  8  1  0
  8  9  1  0
  9 10  1  0
 10 11  1  6
 10 12  1  0
 12 13  1  6
 13 14  1  0
 15 14  1  6
 15 16  1  0
 16 17  1  6
 16 18  1  0
 18 19  1  0
 19 20  2  0
 20 21  1  0
 21 22  2  0
 22 23  1  0
 23 24  2  0
 24 25  1  0
 25 26  2  0
 24 27  1  0
 27 28  1  0
 27 29  2  0
 20 30  1  0
 30 31  1  0
 30 32  1  0
 30 33  1  0
 33 34  1  1
 34 35  1  0
 35 36  1  0
 36 37  1  1
 12 38  1  0
  7 39  1  1
 39 40  1  0
 40 41  1  0
 41 42  1  0
 42 43  1  0
 43 44  1  0
 44 45  1  0
 45 46  2  0
 45 47  2  0
 45 48  1  0
 48 49  1  0
 38  4  1  1
 49 42  1  0
 38  7  1  0
 36 10  1  0
 36 15  1  0
 33 16  1  0
 26 21  1  0
M  END
$$$$
