
     RDKit          3D

 49 55  0  0  0  0  0  0  0  0999 V2000
  117.8536  143.8163  143.5659 C   0  0  0  0  0  0  0  0  0  0  0  0
  117.7552  142.4157  143.0723 C   0  0  0  0  0  0  0  0  0  0  0  0
  117.6839  142.2608  141.7673 C   0  0  0  0  0  0  0  0  0  0  0  0
  117.8399  141.3053  143.9705 C   0  0  2  0  0  0  0  0  0  0  0  0
  116.7160  140.2563  143.8248 C   0  0  0  0  0  0  0  0  0  0  0  0
  116.8904  139.3703  145.0672 C   0  0  0  0  0  0  0  0  0  0  0  0
  118.1492  139.9238  145.7193 C   0  0  2  0  0  0  0  0  0  0  0  0
  118.2716  139.5764  147.1501 C   0  0  0  0  0  0  0  0  0  0  0  0
  119.3618  140.4741  147.7220 C   0  0  0  0  0  0  0  0  0  0  0  0
  118.9370  141.9212  147.6071 C   0  0  2  0  0  0  0  0  0  0  0  0
  117.6775  142.0136  148.3969 C   0  0  0  0  0  0  0  0  0  0  0  0
  118.6892  142.3517  146.1569 C   0  0  2  0  0  0  0  0  0  0  0  0
  118.0197  143.7265  146.2937 C   0  0  0  0  0  0  0  0  0  0  0  0
  118.9161  144.7014  146.9926 C   0  0  0  0  0  0  0  0  0  0  0  0
  119.5250  144.1865  148.2435 C   0  0  2  0  0  0  0  0  0  0  0  0
  120.4497  145.1663  148.9222 C   0  0  1  0  0  0  0  0  0  0  0  0
  121.4395  145.8438  148.0669 C   0  0  0  0  0  0  0  0  0  0  0  0
  119.4921  146.2918  149.3803 C   0  0  0  0  0  0  0  0  0  0  0  0
  120.1678  147.1705  150.3773 C   0  0  0  0  0  0  0  0  0  0  0  0
  121.1890  146.8333  151.1228 C   0  0  0  0  0  0  0  0  0  0  0  0
  121.7507  147.8143  152.0653 C   0  0  0  0  0  0  0  0  0  0  0  0
  121.2171  147.9687  153.3248 C   0  0  0  0  0  0  0  0  0  0  0  0
  121.7151  148.8985  154.2389 C   0  0  0  0  0  0  0  0  0  0  0  0
  122.7775  149.7086  153.9052 C   0  0  0  0  0  0  0  0  0  0  0  0
  123.2994  149.5446  152.6481 C   0  0  0  0  0  0  0  0  0  0  0  0
  122.8111  148.6286  151.7438 C   0  0  0  0  0  0  0  0  0  0  0  0
  123.3207  150.6910  154.8476 C   0  0  0  0  0  0  0  0  0  0  0  0
  122.8636  150.8234  156.1292 O   0  0  0  0  0  0  0  0  0  0  0  0
  124.2461  151.4327  154.4386 O   0  0  0  0  0  0  0  0  0  0  0  0
  121.7929  145.4678  151.0555 C   0  0  0  0  0  0  0  0  0  0  0  0
  123.2209  145.4564  150.6276 C   0  0  0  0  0  0  0  0  0  0  0  0
  121.6944  144.8993  152.4565 C   0  0  0  0  0  0  0  0  0  0  0  0
  120.9276  144.5699  150.1990 C   0  0  2  0  0  0  0  0  0  0  0  0
  121.5267  143.2119  150.0646 C   0  0  0  0  0  0  0  0  0  0  0  0
  120.5765  142.2360  149.3940 C   0  0  0  0  0  0  0  0  0  0  0  0
  120.0644  142.8068  148.0908 C   0  0  1  0  0  0  0  0  0  0  0  0
  121.2171  142.7365  147.1098 C   0  0  0  0  0  0  0  0  0  0  0  0
  117.8594  141.4188  145.4444 C   0  0  1  0  0  0  0  0  0  0  0  0
  119.2762  139.5075  144.9605 N   0  0  0  0  0  0  0  0  0  0  0  0
  119.1781  138.2976  144.2419 C   0  0  0  0  0  0  0  0  0  0  0  0
  119.2447  138.6148  142.7424 C   0  0  0  0  0  0  0  0  0  0  0  0
  120.5847  138.5281  142.2779 N   0  0  0  0  0  0  0  0  0  0  0  0
  121.0060  137.2867  141.7358 C   0  0  0  0  0  0  0  0  0  0  0  0
  121.9365  137.5096  140.5857 C   0  0  0  0  0  0  0  0  0  0  0  0
  122.7052  139.0797  140.6853 S   0  0  0  0  0  6  0  0  0  0  0  0
  124.1623  138.9617  140.2782 O   0  0  0  0  0  0  0  0  0  0  0  0
  122.0502  139.9901  139.6682 O   0  0  0  0  0  0  0  0  0  0  0  0
  122.5671  139.8473  142.2683 C   0  0  0  0  0  0  0  0  0  0  0  0
  121.5864  139.0849  143.1369 C   0  0  0  0  0  0  0  0  0  0  0  0
  1  2  1  0
  2  3  2  0
  4  2  1  6
  4  5  1  0
  5  6  1  0
  6  7  1  0
  7  8  1  0
  8  9  1  0
  9 10  1  0
 10 11  1  1
 10 12  1  0
 12 13  1  1
 13 14  1  0
 15 14  1  6
 15 16  1  0
 16 17  1  6
 16 18  1  0
 18 19  1  0
 19 20  2  0
 20 21  1  0
 21 22  2  0
 22 23  1  0
 23 24  2  0
 24 25  1  0
 25 26  2  0
 24 27  1  0
 27 28  1  0
 27 29  2  0
 20 30  1  0
 30 31  1  0
 30 32  1  0
 30 33  1  0
 33 34  1  6
 34 35  1  0
 35 36  1  0
 36 37  1  6
 12 38  1  0
  7 39  1  6
 39 40  1  0
 40 41  1  0
 41 42  1  0
 42 43  1  0
 43 44  1  0
 44 45  1  0
 45 46  2  0
 45 47  2  0
 45 48  1  0
 48 49  1  0
 38  4  1  6
 49 42  1  0
 38  7  1  0
 36 10  1  0
 36 15  1  0
 33 16  1  0
 26 21  1  0
M  END
$$$$
