
     RDKit          3D

 49 55  0  0  0  0  0  0  0  0999 V2000
  129.3043  134.3634  132.4007 C   0  0  0  0  0  0  0  0  0  0  0  0
  130.0751  134.1725  131.1420 C   0  0  0  0  0  0  0  0  0  0  0  0
  129.4406  133.5784  130.1538 C   0  0  0  0  0  0  0  0  0  0  0  0
  131.3954  134.7031  130.9934 C   0  0  2  0  0  0  0  0  0  0  0  0
  132.5380  133.7343  131.3685 C   0  0  0  0  0  0  0  0  0  0  0  0
  133.7791  134.6387  131.3960 C   0  0  0  0  0  0  0  0  0  0  0  0
  133.2446  135.9831  130.9241 C   0  0  2  0  0  0  0  0  0  0  0  0
  134.1026  137.1237  131.3058 C   0  0  0  0  0  0  0  0  0  0  0  0
  133.2750  138.3829  131.0792 C   0  0  0  0  0  0  0  0  0  0  0  0
  132.0632  138.3610  131.9842 C   0  0  2  0  0  0  0  0  0  0  0  0
  132.6186  138.3085  133.3654 C   0  0  0  0  0  0  0  0  0  0  0  0
  131.1558  137.1524  131.7286 C   0  0  2  0  0  0  0  0  0  0  0  0
  130.1712  137.1797  132.9063 C   0  0  0  0  0  0  0  0  0  0  0  0
  129.3761  138.4486  132.9217 C   0  0  0  0  0  0  0  0  0  0  0  0
  130.1863  139.6817  132.7684 C   0  0  2  0  0  0  0  0  0  0  0  0
  129.3715  140.9513  132.7546 C   0  0  1  0  0  0  0  0  0  0  0  0
  128.1807  140.9642  131.8876 C   0  0  0  0  0  0  0  0  0  0  0  0
  128.8089  141.0219  134.1941 C   0  0  0  0  0  0  0  0  0  0  0  0
  128.2749  142.3855  134.4734 C   0  0  0  0  0  0  0  0  0  0  0  0
  128.6200  143.4823  133.8487 C   0  0  0  0  0  0  0  0  0  0  0  0
  128.0024  144.7603  134.2381 C   0  0  0  0  0  0  0  0  0  0  0  0
  128.6085  145.5859  135.1578 C   0  0  0  0  0  0  0  0  0  0  0  0
  128.0447  146.7975  135.5607 C   0  0  0  0  0  0  0  0  0  0  0  0
  126.8398  147.2159  135.0418 C   0  0  0  0  0  0  0  0  0  0  0  0
  126.2470  146.3845  134.1268 C   0  0  0  0  0  0  0  0  0  0  0  0
  126.7999  145.1889  133.7270 C   0  0  0  0  0  0  0  0  0  0  0  0
  126.2279  148.4849  135.4462 C   0  0  0  0  0  0  0  0  0  0  0  0
  124.9970  148.8892  135.0099 O   0  0  0  0  0  0  0  0  0  0  0  0
  126.8805  149.2169  136.2286 O   0  0  0  0  0  0  0  0  0  0  0  0
  129.6411  143.4758  132.7574 C   0  0  0  0  0  0  0  0  0  0  0  0
  129.1201  143.9298  131.4364 C   0  0  0  0  0  0  0  0  0  0  0  0
  130.7363  144.4220  133.2059 C   0  0  0  0  0  0  0  0  0  0  0  0
  130.2966  142.1146  132.6813 C   0  0  2  0  0  0  0  0  0  0  0  0
  131.2850  142.0533  131.5675 C   0  0  0  0  0  0  0  0  0  0  0  0
  132.1059  140.7767  131.6066 C   0  0  0  0  0  0  0  0  0  0  0  0
  131.2011  139.5678  131.6845 C   0  0  1  0  0  0  0  0  0  0  0  0
  130.5751  139.4120  130.3133 C   0  0  0  0  0  0  0  0  0  0  0  0
  131.8918  135.9188  131.6726 C   0  0  1  0  0  0  0  0  0  0  0  0
  133.0195  135.9174  129.5225 N   0  0  0  0  0  0  0  0  0  0  0  0
  131.6929  135.7466  129.0741 C   0  0  0  0  0  0  0  0  0  0  0  0
  131.5002  136.5739  127.7966 C   0  0  0  0  0  0  0  0  0  0  0  0
  130.6319  135.8989  126.8969 N   0  0  0  0  0  0  0  0  0  0  0  0
  130.9473  134.5538  126.5747 C   0  0  0  0  0  0  0  0  0  0  0  0
  129.6963  133.7462  126.4296 C   0  0  0  0  0  0  0  0  0  0  0  0
  128.3232  134.7639  126.0491 S   0  0  0  0  0  6  0  0  0  0  0  0
  127.4493  134.0771  125.0159 O   0  0  0  0  0  0  0  0  0  0  0  0
  127.4789  134.9021  127.2981 O   0  0  0  0  0  0  0  0  0  0  0  0
  128.7601  136.3856  125.5077 C   0  0  0  0  0  0  0  0  0  0  0  0
  130.2389  136.6324  125.7312 C   0  0  0  0  0  0  0  0  0  0  0  0
  1  2  1  0
  2  3  2  0
  4  2  1  1
  4  5  1  0
  5  6  1  0
  6  7  1  0
  7  8  1  0
  8  9  1  0
  9 10  1  0
 10 11  1  1
 10 12  1  0
 12 13  1  1
 13 14  1  0
 15 14  1  6
 15 16  1  0
 16 17  1  6
 16 18  1  0
 18 19  1  0
 19 20  2  0
 20 21  1  0
 21 22  2  0
 22 23  1  0
 23 24  2  0
 24 25  1  0
 25 26  2  0
 24 27  1  0
 27 28  1  0
 27 29  2  0
 20 30  1  0
 30 31  1  0
 30 32  1  0
 30 33  1  0
 33 34  1  6
 34 35  1  0
 35 36  1  0
 36 37  1  6
 12 38  1  0
  7 39  1  6
 39 40  1  0
 40 41  1  0
 41 42  1  0
 42 43  1  0
 43 44  1  0
 44 45  1  0
 45 46  2  0
 45 47  2  0
 45 48  1  0
 48 49  1  0
 38  4  1  6
 49 42  1  0
 38  7  1  0
 36 10  1  0
 36 15  1  0
 33 16  1  0
 26 21  1  0
M  END
$$$$
