
     RDKit          3D

 49 55  0  0  0  0  0  0  0  0999 V2000
  186.9442  162.8363  131.1581 C   0  0  0  0  0  0  0  0  0  0  0  0
  187.0831  162.6641  132.6298 C   0  0  0  0  0  0  0  0  0  0  0  0
  186.6418  163.6535  133.3772 C   0  0  0  0  0  0  0  0  0  0  0  0
  187.5744  161.4429  133.1903 C   0  0  2  0  0  0  0  0  0  0  0  0
  188.3068  160.5134  132.1981 C   0  0  0  0  0  0  0  0  0  0  0  0
  188.4528  159.1995  132.9800 C   0  0  0  0  0  0  0  0  0  0  0  0
  187.9053  159.5474  134.3567 C   0  0  2  0  0  0  0  0  0  0  0  0
  187.4938  158.3654  135.1417 C   0  0  0  0  0  0  0  0  0  0  0  0
  186.6652  158.8878  136.3089 C   0  0  0  0  0  0  0  0  0  0  0  0
  185.4265  159.5768  135.7811 C   0  0  2  0  0  0  0  0  0  0  0  0
  184.6997  158.5243  135.0176 C   0  0  0  0  0  0  0  0  0  0  0  0
  185.7535  160.7656  134.8703 C   0  0  2  0  0  0  0  0  0  0  0  0
  184.3994  161.1296  134.2450 C   0  0  0  0  0  0  0  0  0  0  0  0
  183.4034  161.5200  135.2929 C   0  0  0  0  0  0  0  0  0  0  0  0
  183.3195  160.5818  136.4389 C   0  0  2  0  0  0  0  0  0  0  0  0
  182.3352  161.0015  137.5023 C   0  0  1  0  0  0  0  0  0  0  0  0
  182.3966  162.4054  137.9441 C   0  0  0  0  0  0  0  0  0  0  0  0
  180.9701  160.8758  136.7851 C   0  0  0  0  0  0  0  0  0  0  0  0
  179.8598  160.9044  137.7796 C   0  0  0  0  0  0  0  0  0  0  0  0
  179.9650  160.6035  139.0488 C   0  0  0  0  0  0  0  0  0  0  0  0
  178.7741  160.6795  139.9104 C   0  0  0  0  0  0  0  0  0  0  0  0
  177.9013  159.6192  140.0033 C   0  0  0  0  0  0  0  0  0  0  0  0
  176.7553  159.6618  140.7990 C   0  0  0  0  0  0  0  0  0  0  0  0
  176.4533  160.7877  141.5320 C   0  0  0  0  0  0  0  0  0  0  0  0
  177.3308  161.8363  141.4305 C   0  0  0  0  0  0  0  0  0  0  0  0
  178.4620  161.7980  140.6469 C   0  0  0  0  0  0  0  0  0  0  0  0
  175.2577  160.8569  142.3771 C   0  0  0  0  0  0  0  0  0  0  0  0
  174.3061  159.8757  142.4006 O   0  0  0  0  0  0  0  0  0  0  0  0
  175.1223  161.8708  143.1034 O   0  0  0  0  0  0  0  0  0  0  0  0
  181.2631  160.1663  139.6468 C   0  0  0  0  0  0  0  0  0  0  0  0
  181.7712  161.0684  140.7194 C   0  0  0  0  0  0  0  0  0  0  0  0
  181.0086  158.7943  140.2373 C   0  0  0  0  0  0  0  0  0  0  0  0
  182.2807  159.9456  138.5495 C   0  0  2  0  0  0  0  0  0  0  0  0
  183.6056  159.5595  139.1121 C   0  0  0  0  0  0  0  0  0  0  0  0
  184.5775  159.1255  138.0295 C   0  0  0  0  0  0  0  0  0  0  0  0
  184.6602  160.1725  136.9417 C   0  0  1  0  0  0  0  0  0  0  0  0
  185.4446  161.3320  137.5216 C   0  0  0  0  0  0  0  0  0  0  0  0
  186.7343  160.4357  133.8724 C   0  0  1  0  0  0  0  0  0  0  0  0
  188.8618  160.3469  135.0388 N   0  0  0  0  0  0  0  0  0  0  0  0
  190.0927  159.7517  135.3860 C   0  0  0  0  0  0  0  0  0  0  0  0
  191.1800  160.8338  135.3661 C   0  0  0  0  0  0  0  0  0  0  0  0
  192.2883  160.4066  134.5862 N   0  0  0  0  0  0  0  0  0  0  0  0
  192.1428  159.1989  133.8562 C   0  0  0  0  0  0  0  0  0  0  0  0
  192.8439  159.2994  132.5385 C   0  0  0  0  0  0  0  0  0  0  0  0
  194.1060  160.5122  132.5808 S   0  0  0  0  0  6  0  0  0  0  0  0
  195.3226  160.0099  131.8256 O   0  0  0  0  0  0  0  0  0  0  0  0
  193.6125  161.7319  131.8320 O   0  0  0  0  0  0  0  0  0  0  0  0
  194.5576  161.0215  134.2090 C   0  0  0  0  0  0  0  0  0  0  0  0
  193.5699  160.4767  135.2216 C   0  0  0  0  0  0  0  0  0  0  0  0
  1  2  1  0
  2  3  2  0
  4  2  1  6
  4  5  1  0
  5  6  1  0
  6  7  1  0
  7  8  1  0
  8  9  1  0
  9 10  1  0
 10 11  1  6
 10 12  1  0
 12 13  1  6
 13 14  1  0
 15 14  1  6
 15 16  1  0
 16 17  1  1
 16 18  1  0
 18 19  1  0
 19 20  2  0
 20 21  1  0
 21 22  2  0
 22 23  1  0
 23 24  2  0
 24 25  1  0
 25 26  2  0
 24 27  1  0
 27 28  1  0
 27 29  2  0
 20 30  1  0
 30 31  1  0
 30 32  1  0
 30 33  1  0
 33 34  1  1
 34 35  1  0
 35 36  1  0
 36 37  1  1
 12 38  1  0
  7 39  1  1
 39 40  1  0
 40 41  1  0
 41 42  1  0
 42 43  1  0
 43 44  1  0
 44 45  1  0
 45 46  2  0
 45 47  2  0
 45 48  1  0
 48 49  1  0
 38  4  1  1
 49 42  1  0
 38  7  1  0
 36 10  1  0
 36 15  1  0
 33 16  1  0
 26 21  1  0
M  END
$$$$
