
     RDKit          3D

 55 63  0  0  0  0  0  0  0  0999 V2000
  187.1825  170.8842  120.1858 C   0  0  2  0  0  0  0  0  0  0  0  0
  187.1401  171.3263  121.5389 N   0  0  0  0  0  0  0  0  0  0  0  0
  186.1044  172.3366  121.6709 C   0  0  0  0  0  0  0  0  0  0  0  0
  185.6732  172.7086  120.2939 C   0  0  0  0  0  0  0  0  0  0  0  0
  186.7092  172.0537  119.4161 C   0  0  1  0  0  0  0  0  0  0  0  0
  187.8292  173.0638  119.3048 C   0  0  0  0  0  0  0  0  0  0  0  0
  188.6632  173.6258  120.2487 C   0  0  0  0  0  0  0  0  0  0  0  0
  189.6345  174.5499  119.9478 C   0  0  0  0  0  0  0  0  0  0  0  0
  189.7339  174.8968  118.6004 C   0  0  0  0  0  0  0  0  0  0  0  0
  190.6726  175.8178  118.1649 O   0  0  0  0  0  0  0  0  0  0  0  0
  191.5708  175.5780  117.1162 C   0  0  0  0  0  0  0  0  0  0  0  0
  188.9148  174.3511  117.6361 C   0  0  0  0  0  0  0  0  0  0  0  0
  187.9528  173.4271  117.9828 C   0  0  0  0  0  0  0  0  0  0  0  0
  187.0164  172.7385  117.1824 N   0  0  0  0  0  0  0  0  0  0  0  0
  186.8449  172.8990  115.7645 C   0  0  0  0  0  0  0  0  0  0  0  0
  186.2558  171.8443  118.0230 C   0  0  1  0  0  0  0  0  0  0  0  0
  186.2814  170.4498  117.4991 C   0  0  2  0  0  0  0  0  0  0  0  0
  185.1505  170.3865  116.6234 O   0  0  0  0  0  0  0  0  0  0  0  0
  186.0280  169.3873  118.5016 C   0  0  2  0  0  0  0  0  0  0  0  0
  184.6322  169.1421  118.6043 O   0  0  0  0  0  0  0  0  0  0  0  0
  186.6181  169.5632  119.8655 C   0  0  1  0  0  0  0  0  0  0  0  0
  187.7162  168.4812  119.9965 C   0  0  0  0  0  0  0  0  0  0  0  0
  187.0376  167.1079  119.9706 C   0  0  0  0  0  0  0  0  0  0  0  0
  185.5856  169.1369  120.8409 C   0  0  0  0  0  0  0  0  0  0  0  0
  185.6898  169.4788  122.1039 C   0  0  0  0  0  0  0  0  0  0  0  0
  186.8594  170.2975  122.5179 C   0  0  0  0  0  0  0  0  0  0  0  0
  187.4447  170.1823  116.5962 C   0  0  0  0  0  0  0  0  0  0  0  0
  187.3105  169.6636  115.2791 N   0  0  0  0  0  0  0  0  0  0  0  0
  188.6485  170.4134  116.9768 O   0  0  0  0  0  0  0  0  0  0  0  0
  190.5526  175.1605  120.9585 C   0  0  1  0  0  0  0  0  0  0  0  0
  190.2332  174.6435  122.2621 C   0  0  0  0  0  0  0  0  0  0  0  0
  190.9692  175.0095  123.4527 C   0  0  1  0  0  0  0  0  0  0  0  0
  192.0470  176.0338  123.3173 C   0  0  0  0  0  0  0  0  0  0  0  0
  193.1600  175.4104  123.9796 N   0  0  0  0  0  0  0  0  0  0  0  0
  192.6327  175.0260  125.2835 C   0  0  0  0  0  0  0  0  0  0  0  0
  191.3385  175.6129  125.7146 C   0  0  2  0  0  0  0  0  0  0  0  0
  191.4581  176.9462  126.1709 O   0  0  0  0  0  0  0  0  0  0  0  0
  190.9245  174.8653  126.9683 C   0  0  0  0  0  0  0  0  0  0  0  0
  191.9454  174.8482  128.0385 C   0  0  0  0  0  0  0  0  0  0  0  0
  190.1949  175.4946  124.6868 C   0  0  0  0  0  0  0  0  0  0  0  0
  193.7238  174.2960  123.3424 C   0  0  0  0  0  0  0  0  0  0  0  0
  193.1771  173.6219  122.1772 C   0  0  0  0  0  0  0  0  0  0  0  0
  193.0041  174.3625  120.9163 C   0  0  0  0  0  0  0  0  0  0  0  0
  191.9098  174.9792  120.4187 C   0  0  0  0  0  0  0  0  0  0  0  0
  192.2589  175.5029  119.2225 N   0  0  0  0  0  0  0  0  0  0  0  0
  193.5280  175.2638  118.9086 C   0  0  0  0  0  0  0  0  0  0  0  0
  194.0228  174.5446  119.9620 C   0  0  0  0  0  0  0  0  0  0  0  0
  195.3545  174.1624  119.8837 C   0  0  0  0  0  0  0  0  0  0  0  0
  196.1568  174.4774  118.8137 C   0  0  0  0  0  0  0  0  0  0  0  0
  195.6303  175.1999  117.7727 C   0  0  0  0  0  0  0  0  0  0  0  0
  194.3164  175.5924  117.8211 C   0  0  0  0  0  0  0  0  0  0  0  0
  190.1766  176.6330  120.9592 C   0  0  0  0  0  0  0  0  0  0  0  0
  190.2849  177.3337  121.9689 O   0  0  0  0  0  0  0  0  0  0  0  0
  189.6946  177.2532  119.8131 O   0  0  0  0  0  0  0  0  0  0  0  0
  190.0013  178.6136  119.5161 C   0  0  0  0  0  0  0  0  0  0  0  0
  1  2  1  1
  2  3  1  0
  3  4  1  0
  5  4  1  1
  5  6  1  0
  6  7  2  0
  7  8  1  0
  8  9  2  0
  9 10  1  0
 10 11  1  0
  9 12  1  0
 12 13  2  0
 13 14  1  0
 14 15  1  0
 16 14  1  6
 16 17  1  0
 17 18  1  6
 17 19  1  0
 19 20  1  1
 19 21  1  0
 21 22  1  6
 22 23  1  0
 21 24  1  0
 24 25  2  0
 25 26  1  0
 17 27  1  0
 27 28  1  0
 27 29  2  0
  8 30  1  0
 30 31  1  0
 32 31  1  6
 32 33  1  0
 33 34  1  0
 34 35  1  0
 35 36  1  0
 36 37  1  1
 36 38  1  0
 38 39  1  0
 36 40  1  0
 34 41  1  0
 41 42  1  0
 42 43  1  0
 43 44  2  0
 44 45  1  0
 45 46  1  0
 46 47  2  0
 47 48  1  0
 48 49  2  0
 49 50  1  0
 50 51  2  0
 30 52  1  1
 52 53  2  0
 52 54  1  0
 54 55  1  0
  5  1  1  0
 16  5  1  0
 44 30  1  0
 51 46  1  0
 21  1  1  0
 40 32  1  0
 47 43  1  0
 26  2  1  0
 13  6  1  0
M  END
$$$$
