
     RDKit          3D

 55 63  0  0  0  0  0  0  0  0999 V2000
  207.7784  134.4927  135.5334 C   0  0  2  0  0  0  0  0  0  0  0  0
  207.4333  133.6805  136.6511 N   0  0  0  0  0  0  0  0  0  0  0  0
  208.3037  132.5175  136.6733 C   0  0  0  0  0  0  0  0  0  0  0  0
  209.0358  132.4897  135.3758 C   0  0  0  0  0  0  0  0  0  0  0  0
  208.3228  133.5314  134.5517 C   0  0  1  0  0  0  0  0  0  0  0  0
  207.1803  132.7964  133.8872 C   0  0  0  0  0  0  0  0  0  0  0  0
  206.0851  132.1341  134.4011 C   0  0  0  0  0  0  0  0  0  0  0  0
  205.1419  131.5098  133.6209 C   0  0  0  0  0  0  0  0  0  0  0  0
  205.3582  131.5854  132.2449 C   0  0  0  0  0  0  0  0  0  0  0  0
  204.4811  130.9973  131.3483 O   0  0  0  0  0  0  0  0  0  0  0  0
  204.4275  131.3201  129.9856 C   0  0  0  0  0  0  0  0  0  0  0  0
  206.4428  132.2407  131.7038 C   0  0  0  0  0  0  0  0  0  0  0  0
  207.3652  132.8532  132.5243 C   0  0  0  0  0  0  0  0  0  0  0  0
  208.5340  133.5768  132.2052 N   0  0  0  0  0  0  0  0  0  0  0  0
  209.0462  133.8035  130.8816 C   0  0  0  0  0  0  0  0  0  0  0  0
  209.1339  134.0531  133.4291 C   0  0  1  0  0  0  0  0  0  0  0  0
  209.3711  135.5233  133.3839 C   0  0  2  0  0  0  0  0  0  0  0  0
  210.6889  135.6462  132.8378 O   0  0  0  0  0  0  0  0  0  0  0  0
  209.4570  136.1962  134.7022 C   0  0  2  0  0  0  0  0  0  0  0  0
  210.7968  136.1661  135.1743 O   0  0  0  0  0  0  0  0  0  0  0  0
  208.5249  135.7371  135.7791 C   0  0  1  0  0  0  0  0  0  0  0  0
  207.5340  136.9029  136.0092 C   0  0  0  0  0  0  0  0  0  0  0  0
  208.3464  138.1855  136.2141 C   0  0  0  0  0  0  0  0  0  0  0  0
  209.3090  135.6882  137.0369 C   0  0  0  0  0  0  0  0  0  0  0  0
  208.8550  135.0208  138.0719 C   0  0  0  0  0  0  0  0  0  0  0  0
  207.5483  134.3239  137.9428 C   0  0  0  0  0  0  0  0  0  0  0  0
  208.5064  136.2279  132.3859 C   0  0  0  0  0  0  0  0  0  0  0  0
  209.0228  136.9825  131.2971 N   0  0  0  0  0  0  0  0  0  0  0  0
  207.2263  136.1840  132.4673 O   0  0  0  0  0  0  0  0  0  0  0  0
  203.9443  130.7964  134.1630 C   0  0  1  0  0  0  0  0  0  0  0  0
  203.3709  131.5748  135.2279 C   0  0  0  0  0  0  0  0  0  0  0  0
  202.1735  131.1749  135.9345 C   0  0  1  0  0  0  0  0  0  0  0  0
  201.5698  129.8539  135.5889 C   0  0  0  0  0  0  0  0  0  0  0  0
  200.1860  130.1833  135.3826 N   0  0  0  0  0  0  0  0  0  0  0  0
  199.8042  130.9032  136.5916 C   0  0  0  0  0  0  0  0  0  0  0  0
  200.7100  130.8272  137.7659 C   0  0  2  0  0  0  0  0  0  0  0  0
  200.6002  129.6076  138.4736 O   0  0  0  0  0  0  0  0  0  0  0  0
  200.1988  131.8442  138.7691 C   0  0  0  0  0  0  0  0  0  0  0  0
  198.7346  131.8189  138.9774 C   0  0  0  0  0  0  0  0  0  0  0  0
  202.1890  131.1483  137.4698 C   0  0  0  0  0  0  0  0  0  0  0  0
  199.8878  130.9544  134.2503 C   0  0  0  0  0  0  0  0  0  0  0  0
  200.8622  131.5868  133.3775 C   0  0  0  0  0  0  0  0  0  0  0  0
  201.8487  130.7613  132.6610 C   0  0  0  0  0  0  0  0  0  0  0  0
  203.1233  130.4565  132.9896 C   0  0  0  0  0  0  0  0  0  0  0  0
  203.6134  129.6783  131.9990 N   0  0  0  0  0  0  0  0  0  0  0  0
  202.7252  129.4539  131.0361 C   0  0  0  0  0  0  0  0  0  0  0  0
  201.6007  130.1267  131.4291 C   0  0  0  0  0  0  0  0  0  0  0  0
  200.5030  130.0514  130.5835 C   0  0  0  0  0  0  0  0  0  0  0  0
  200.5188  129.3438  129.4058 C   0  0  0  0  0  0  0  0  0  0  0  0
  201.6624  128.6797  129.0398 C   0  0  0  0  0  0  0  0  0  0  0  0
  202.7645  128.7353  129.8552 C   0  0  0  0  0  0  0  0  0  0  0  0
  204.5161  129.5361  134.7908 C   0  0  0  0  0  0  0  0  0  0  0  0
  204.3008  129.2383  135.9686 O   0  0  0  0  0  0  0  0  0  0  0  0
  205.3079  128.6618  134.0565 O   0  0  0  0  0  0  0  0  0  0  0  0
  205.8350  127.4693  134.6335 C   0  0  0  0  0  0  0  0  0  0  0  0
  1  2  1  1
  2  3  1  0
  3  4  1  0
  5  4  1  1
  5  6  1  0
  6  7  2  0
  7  8  1  0
  8  9  2  0
  9 10  1  0
 10 11  1  0
  9 12  1  0
 12 13  2  0
 13 14  1  0
 14 15  1  0
 16 14  1  6
 16 17  1  0
 17 18  1  6
 17 19  1  0
 19 20  1  1
 19 21  1  0
 21 22  1  1
 22 23  1  0
 21 24  1  0
 24 25  2  0
 25 26  1  0
 17 27  1  0
 27 28  1  0
 27 29  2  0
  8 30  1  0
 30 31  1  0
 32 31  1  6
 32 33  1  0
 33 34  1  0
 34 35  1  0
 35 36  1  0
 36 37  1  1
 36 38  1  0
 38 39  1  0
 36 40  1  0
 34 41  1  0
 41 42  1  0
 42 43  1  0
 43 44  2  0
 44 45  1  0
 45 46  1  0
 46 47  2  0
 47 48  1  0
 48 49  2  0
 49 50  1  0
 50 51  2  0
 30 52  1  1
 52 53  2  0
 52 54  1  0
 54 55  1  0
  5  1  1  0
 16  5  1  0
 44 30  1  0
 51 46  1  0
 21  1  1  0
 40 32  1  0
 47 43  1  0
 26  2  1  0
 13  6  1  0
M  END
$$$$
