
     RDKit          3D

 55 63  0  0  0  0  0  0  0  0999 V2000
  151.3518  177.3678  138.9218 C   0  0  2  0  0  0  0  0  0  0  0  0
  150.0564  176.7904  138.7934 N   0  0  0  0  0  0  0  0  0  0  0  0
  150.0532  175.4933  139.4478 C   0  0  0  0  0  0  0  0  0  0  0  0
  151.4696  175.1555  139.7643 C   0  0  0  0  0  0  0  0  0  0  0  0
  152.2531  176.1998  139.0105 C   0  0  1  0  0  0  0  0  0  0  0  0
  152.4563  175.6208  137.6282 C   0  0  0  0  0  0  0  0  0  0  0  0
  151.5664  175.2564  136.6396 C   0  0  0  0  0  0  0  0  0  0  0  0
  151.9510  174.7313  135.4295 C   0  0  0  0  0  0  0  0  0  0  0  0
  153.3266  174.5841  135.2509 C   0  0  0  0  0  0  0  0  0  0  0  0
  153.8452  174.0661  134.0754 O   0  0  0  0  0  0  0  0  0  0  0  0
  155.1858  173.6906  133.9145 C   0  0  0  0  0  0  0  0  0  0  0  0
  154.2383  174.9401  136.2207 C   0  0  0  0  0  0  0  0  0  0  0  0
  153.8080  175.4631  137.4210 C   0  0  0  0  0  0  0  0  0  0  0  0
  154.5432  175.8982  138.5443 N   0  0  0  0  0  0  0  0  0  0  0  0
  155.9726  175.8472  138.6835 C   0  0  0  0  0  0  0  0  0  0  0  0
  153.6220  176.4037  139.5346 C   0  0  1  0  0  0  0  0  0  0  0  0
  153.9890  177.7812  139.9676 C   0  0  2  0  0  0  0  0  0  0  0  0
  154.8708  177.5738  141.0763 O   0  0  0  0  0  0  0  0  0  0  0  0
  152.8801  178.5901  140.5282 C   0  0  2  0  0  0  0  0  0  0  0  0
  152.7739  178.3619  141.9267 O   0  0  0  0  0  0  0  0  0  0  0  0
  151.5343  178.4647  139.8860 C   0  0  1  0  0  0  0  0  0  0  0  0
  151.2673  179.8206  139.1902 C   0  0  0  0  0  0  0  0  0  0  0  0
  149.8437  179.7939  138.6248 C   0  0  0  0  0  0  0  0  0  0  0  0
  150.5350  178.4281  140.9811 C   0  0  0  0  0  0  0  0  0  0  0  0
  149.3157  178.0018  140.7478 C   0  0  0  0  0  0  0  0  0  0  0  0
  148.9751  177.5613  139.3695 C   0  0  0  0  0  0  0  0  0  0  0  0
  154.8379  178.5047  138.9696 C   0  0  0  0  0  0  0  0  0  0  0  0
  154.5392  179.8081  138.4863 N   0  0  0  0  0  0  0  0  0  0  0  0
  155.9017  177.9702  138.4902 O   0  0  0  0  0  0  0  0  0  0  0  0
  150.9986  174.3407  134.3443 C   0  0  1  0  0  0  0  0  0  0  0  0
  150.1017  173.3323  134.8414 C   0  0  0  0  0  0  0  0  0  0  0  0
  149.0321  172.7723  134.0442 C   0  0  1  0  0  0  0  0  0  0  0  0
  148.9235  173.2085  132.6205 C   0  0  0  0  0  0  0  0  0  0  0  0
  147.5353  173.5625  132.5037 N   0  0  0  0  0  0  0  0  0  0  0  0
  146.8230  172.3905  132.9986 C   0  0  0  0  0  0  0  0  0  0  0  0
  147.5826  171.1237  133.1510 C   0  0  2  0  0  0  0  0  0  0  0  0
  147.8008  170.4560  131.9235 O   0  0  0  0  0  0  0  0  0  0  0  0
  146.6735  170.1650  133.8972 C   0  0  0  0  0  0  0  0  0  0  0  0
  145.3992  169.8655  133.2085 C   0  0  0  0  0  0  0  0  0  0  0  0
  148.9014  171.2457  133.9410 C   0  0  0  0  0  0  0  0  0  0  0  0
  147.1199  174.7063  133.2001 C   0  0  0  0  0  0  0  0  0  0  0  0
  147.9213  175.4520  134.1555 C   0  0  0  0  0  0  0  0  0  0  0  0
  149.1875  176.0688  133.7262 C   0  0  0  0  0  0  0  0  0  0  0  0
  150.4527  175.6050  133.8250 C   0  0  0  0  0  0  0  0  0  0  0  0
  151.2637  176.5490  133.2975 N   0  0  0  0  0  0  0  0  0  0  0  0
  150.5962  177.6096  132.8548 C   0  0  0  0  0  0  0  0  0  0  0  0
  149.2817  177.3326  133.1133 C   0  0  0  0  0  0  0  0  0  0  0  0
  148.3571  178.2974  132.7388 C   0  0  0  0  0  0  0  0  0  0  0  0
  148.7177  179.4790  132.1376 C   0  0  0  0  0  0  0  0  0  0  0  0
  150.0448  179.7269  131.8922 C   0  0  0  0  0  0  0  0  0  0  0  0
  150.9828  178.7921  132.2510 C   0  0  0  0  0  0  0  0  0  0  0  0
  151.8797  173.6768  133.2990 C   0  0  0  0  0  0  0  0  0  0  0  0
  151.5606  172.6164  132.7549 O   0  0  0  0  0  0  0  0  0  0  0  0
  153.0872  174.2435  132.9105 O   0  0  0  0  0  0  0  0  0  0  0  0
  153.1613  175.5827  132.4269 C   0  0  0  0  0  0  0  0  0  0  0  0
  1  2  1  1
  2  3  1  0
  3  4  1  0
  5  4  1  1
  5  6  1  0
  6  7  2  0
  7  8  1  0
  8  9  2  0
  9 10  1  0
 10 11  1  0
  9 12  1  0
 12 13  2  0
 13 14  1  0
 14 15  1  0
 16 14  1  6
 16 17  1  0
 17 18  1  1
 17 19  1  0
 19 20  1  1
 19 21  1  0
 21 22  1  6
 22 23  1  0
 21 24  1  0
 24 25  2  0
 25 26  1  0
 17 27  1  0
 27 28  1  0
 27 29  2  0
  8 30  1  0
 30 31  1  0
 32 31  1  6
 32 33  1  0
 33 34  1  0
 34 35  1  0
 35 36  1  0
 36 37  1  6
 36 38  1  0
 38 39  1  0
 36 40  1  0
 34 41  1  0
 41 42  1  0
 42 43  1  0
 43 44  2  0
 44 45  1  0
 45 46  1  0
 46 47  2  0
 47 48  1  0
 48 49  2  0
 49 50  1  0
 50 51  2  0
 30 52  1  6
 52 53  2  0
 52 54  1  0
 54 55  1  0
  5  1  1  0
 16  5  1  0
 44 30  1  0
 51 46  1  0
 21  1  1  0
 40 32  1  0
 47 43  1  0
 26  2  1  0
 13  6  1  0
M  END
$$$$
