
     RDKit          3D

 55 63  0  0  0  0  0  0  0  0999 V2000
  130.6819  142.6085  133.1251 C   0  0  2  0  0  0  0  0  0  0  0  0
  131.7961  141.8601  132.6491 N   0  0  0  0  0  0  0  0  0  0  0  0
  131.8281  141.9363  131.1986 C   0  0  0  0  0  0  0  0  0  0  0  0
  130.5386  142.5407  130.7602 C   0  0  0  0  0  0  0  0  0  0  0  0
  129.7065  142.5349  132.0172 C   0  0  1  0  0  0  0  0  0  0  0  0
  129.0299  141.1824  132.0377 C   0  0  0  0  0  0  0  0  0  0  0  0
  129.5321  139.8994  132.0996 C   0  0  0  0  0  0  0  0  0  0  0  0
  128.7420  138.7753  132.1004 C   0  0  0  0  0  0  0  0  0  0  0  0
  127.3684  139.0092  132.0344 C   0  0  0  0  0  0  0  0  0  0  0  0
  126.4625  137.9611  132.0277 O   0  0  0  0  0  0  0  0  0  0  0  0
  125.1650  138.0564  131.5069 C   0  0  0  0  0  0  0  0  0  0  0  0
  126.8389  140.2797  131.9723 C   0  0  0  0  0  0  0  0  0  0  0  0
  127.6691  141.3797  131.9735 C   0  0  0  0  0  0  0  0  0  0  0  0
  127.3624  142.7563  131.9228 N   0  0  0  0  0  0  0  0  0  0  0  0
  126.0444  143.3196  131.8180 C   0  0  0  0  0  0  0  0  0  0  0  0
  128.5925  143.5089  131.9926 C   0  0  1  0  0  0  0  0  0  0  0  0
  128.5494  144.5242  133.0822 C   0  0  2  0  0  0  0  0  0  0  0  0
  128.0175  145.6924  132.4481 O   0  0  0  0  0  0  0  0  0  0  0  0
  129.8683  144.9581  133.6020 C   0  0  2  0  0  0  0  0  0  0  0  0
  130.3549  146.0507  132.8348 O   0  0  0  0  0  0  0  0  0  0  0  0
  130.9353  143.9188  133.7456 C   0  0  1  0  0  0  0  0  0  0  0  0
  131.1543  143.7417  135.2670 C   0  0  0  0  0  0  0  0  0  0  0  0
  131.4249  145.1223  135.8734 C   0  0  0  0  0  0  0  0  0  0  0  0
  132.2015  144.5321  133.2767 C   0  0  0  0  0  0  0  0  0  0  0  0
  133.2317  143.7745  132.9811 C   0  0  0  0  0  0  0  0  0  0  0  0
  133.0888  142.3022  133.1279 C   0  0  0  0  0  0  0  0  0  0  0  0
  127.5420  144.2063  134.1424 C   0  0  0  0  0  0  0  0  0  0  0  0
  126.5646  145.1335  134.5970 N   0  0  0  0  0  0  0  0  0  0  0  0
  127.5114  143.0536  134.7061 O   0  0  0  0  0  0  0  0  0  0  0  0
  129.2713  137.3785  132.1771 C   0  0  1  0  0  0  0  0  0  0  0  0
  128.5793  136.5565  131.2210 C   0  0  0  0  0  0  0  0  0  0  0  0
  128.8891  135.1577  131.0198 C   0  0  1  0  0  0  0  0  0  0  0  0
  129.9136  134.5366  131.9108 C   0  0  0  0  0  0  0  0  0  0  0  0
  130.7860  133.8778  130.9776 N   0  0  0  0  0  0  0  0  0  0  0  0
  129.8915  133.0652  130.1619 C   0  0  0  0  0  0  0  0  0  0  0  0
  128.5052  132.8487  130.6485 C   0  0  2  0  0  0  0  0  0  0  0  0
  128.4227  131.8823  131.6778 O   0  0  0  0  0  0  0  0  0  0  0  0
  127.7483  132.1912  129.5097 C   0  0  0  0  0  0  0  0  0  0  0  0
  126.2876  132.0906  129.7205 C   0  0  0  0  0  0  0  0  0  0  0  0
  127.7479  134.1307  131.0497 C   0  0  0  0  0  0  0  0  0  0  0  0
  131.5649  134.7056  130.1568 C   0  0  0  0  0  0  0  0  0  0  0  0
  131.4388  136.1490  130.0486 C   0  0  0  0  0  0  0  0  0  0  0  0
  131.6415  136.9933  131.2378 C   0  0  0  0  0  0  0  0  0  0  0  0
  130.7354  137.5068  132.0984 C   0  0  0  0  0  0  0  0  0  0  0  0
  131.4215  138.2243  133.0158 N   0  0  0  0  0  0  0  0  0  0  0  0
  132.7335  138.2074  132.8035 C   0  0  0  0  0  0  0  0  0  0  0  0
  132.9003  137.4363  131.6858 C   0  0  0  0  0  0  0  0  0  0  0  0
  134.2033  137.2543  131.2442 C   0  0  0  0  0  0  0  0  0  0  0  0
  135.2879  137.8094  131.8792 C   0  0  0  0  0  0  0  0  0  0  0  0
  135.0869  138.5780  132.9980 C   0  0  0  0  0  0  0  0  0  0  0  0
  133.8099  138.7763  133.4591 C   0  0  0  0  0  0  0  0  0  0  0  0
  128.8563  136.9000  133.5585 C   0  0  0  0  0  0  0  0  0  0  0  0
  128.1311  135.9145  133.7172 O   0  0  0  0  0  0  0  0  0  0  0  0
  129.2826  137.5573  134.7060 O   0  0  0  0  0  0  0  0  0  0  0  0
  128.9220  137.0975  136.0065 C   0  0  0  0  0  0  0  0  0  0  0  0
  1  2  1  6
  2  3  1  0
  3  4  1  0
  5  4  1  6
  5  6  1  0
  6  7  2  0
  7  8  1  0
  8  9  2  0
  9 10  1  0
 10 11  1  0
  9 12  1  0
 12 13  2  0
 13 14  1  0
 14 15  1  0
 16 14  1  1
 16 17  1  0
 17 18  1  6
 17 19  1  0
 19 20  1  6
 19 21  1  0
 21 22  1  1
 22 23  1  0
 21 24  1  0
 24 25  2  0
 25 26  1  0
 17 27  1  0
 27 28  1  0
 27 29  2  0
  8 30  1  0
 30 31  1  0
 32 31  1  1
 32 33  1  0
 33 34  1  0
 34 35  1  0
 35 36  1  0
 36 37  1  1
 36 38  1  0
 38 39  1  0
 36 40  1  0
 34 41  1  0
 41 42  1  0
 42 43  1  0
 43 44  2  0
 44 45  1  0
 45 46  1  0
 46 47  2  0
 47 48  1  0
 48 49  2  0
 49 50  1  0
 50 51  2  0
 30 52  1  1
 52 53  2  0
 52 54  1  0
 54 55  1  0
  5  1  1  0
 16  5  1  0
 44 30  1  0
 51 46  1  0
 21  1  1  0
 40 32  1  0
 47 43  1  0
 26  2  1  0
 13  6  1  0
M  END
$$$$
