
     RDKit          3D

 55 63  0  0  0  0  0  0  0  0999 V2000
  127.2525  141.1337  134.5533 C   0  0  2  0  0  0  0  0  0  0  0  0
  127.3248  139.7796  134.9884 N   0  0  0  0  0  0  0  0  0  0  0  0
  128.4969  139.6191  135.8317 C   0  0  0  0  0  0  0  0  0  0  0  0
  129.3103  140.8603  135.6972 C   0  0  0  0  0  0  0  0  0  0  0  0
  128.6622  141.5773  134.5403 C   0  0  1  0  0  0  0  0  0  0  0  0
  129.3447  141.0334  133.3052 C   0  0  0  0  0  0  0  0  0  0  0  0
  129.4100  139.7641  132.7695 C   0  0  0  0  0  0  0  0  0  0  0  0
  130.0996  139.4610  131.6203 C   0  0  0  0  0  0  0  0  0  0  0  0
  130.7460  140.5354  131.0091 C   0  0  0  0  0  0  0  0  0  0  0  0
  131.4760  140.3639  129.8442 O   0  0  0  0  0  0  0  0  0  0  0  0
  131.9530  141.4236  129.0609 C   0  0  0  0  0  0  0  0  0  0  0  0
  130.6973  141.8135  131.5215 C   0  0  0  0  0  0  0  0  0  0  0  0
  129.9936  142.0726  132.6777 C   0  0  0  0  0  0  0  0  0  0  0  0
  129.7994  143.2826  133.3777 N   0  0  0  0  0  0  0  0  0  0  0  0
  130.3598  144.5574  133.0225 C   0  0  0  0  0  0  0  0  0  0  0  0
  128.9440  143.0299  134.5131 C   0  0  1  0  0  0  0  0  0  0  0  0
  127.7743  143.9526  134.5304 C   0  0  2  0  0  0  0  0  0  0  0  0
  128.2319  145.0799  135.2851 O   0  0  0  0  0  0  0  0  0  0  0  0
  126.5902  143.4671  135.2790 C   0  0  2  0  0  0  0  0  0  0  0  0
  126.6930  143.8452  136.6448 O   0  0  0  0  0  0  0  0  0  0  0  0
  126.2498  142.0137  135.1750 C   0  0  1  0  0  0  0  0  0  0  0  0
  124.9268  141.9429  134.3759 C   0  0  0  0  0  0  0  0  0  0  0  0
  124.0319  140.8845  135.0285 C   0  0  0  0  0  0  0  0  0  0  0  0
  125.8648  141.5620  136.5340 C   0  0  0  0  0  0  0  0  0  0  0  0
  125.8296  140.2811  136.8183 C   0  0  0  0  0  0  0  0  0  0  0  0
  126.1852  139.3120  135.7488 C   0  0  0  0  0  0  0  0  0  0  0  0
  127.4608  144.5297  133.1855 C   0  0  0  0  0  0  0  0  0  0  0  0
  127.3094  145.9232  132.9475 N   0  0  0  0  0  0  0  0  0  0  0  0
  127.3095  143.7760  132.1577 O   0  0  0  0  0  0  0  0  0  0  0  0
  130.1714  138.0920  131.0221 C   0  0  1  0  0  0  0  0  0  0  0  0
  128.9512  137.8214  130.3104 C   0  0  0  0  0  0  0  0  0  0  0  0
  128.7234  136.5910  129.5840 C   0  0  1  0  0  0  0  0  0  0  0  0
  129.7750  135.5339  129.6587 C   0  0  0  0  0  0  0  0  0  0  0  0
  129.9764  135.1907  128.2775 N   0  0  0  0  0  0  0  0  0  0  0  0
  128.6369  134.9000  127.7807 C   0  0  0  0  0  0  0  0  0  0  0  0
  127.5518  134.6969  128.7740 C   0  0  2  0  0  0  0  0  0  0  0  0
  127.5883  133.4209  129.3830 O   0  0  0  0  0  0  0  0  0  0  0  0
  126.2536  134.6571  127.9897 C   0  0  0  0  0  0  0  0  0  0  0  0
  126.1820  133.5836  126.9746 C   0  0  0  0  0  0  0  0  0  0  0  0
  127.4318  135.8019  129.8430 C   0  0  0  0  0  0  0  0  0  0  0  0
  130.5862  136.1636  127.4730 C   0  0  0  0  0  0  0  0  0  0  0  0
  130.8677  137.5330  127.8688 C   0  0  0  0  0  0  0  0  0  0  0  0
  131.7583  137.7970  129.0114 C   0  0  0  0  0  0  0  0  0  0  0  0
  131.4558  138.0418  130.3052 C   0  0  0  0  0  0  0  0  0  0  0  0
  132.6245  138.2339  130.9565 N   0  0  0  0  0  0  0  0  0  0  0  0
  133.6810  138.1259  130.1572 C   0  0  0  0  0  0  0  0  0  0  0  0
  133.1621  137.8499  128.9218 C   0  0  0  0  0  0  0  0  0  0  0  0
  134.0724  137.6848  127.8874 C   0  0  0  0  0  0  0  0  0  0  0  0
  135.4304  137.7884  128.0684 C   0  0  0  0  0  0  0  0  0  0  0  0
  135.9191  138.0664  129.3201 C   0  0  0  0  0  0  0  0  0  0  0  0
  135.0440  138.2349  130.3633 C   0  0  0  0  0  0  0  0  0  0  0  0
  130.2009  137.1630  132.2245 C   0  0  0  0  0  0  0  0  0  0  0  0
  131.2409  136.6170  132.6019 O   0  0  0  0  0  0  0  0  0  0  0  0
  129.0493  136.8921  132.9530 O   0  0  0  0  0  0  0  0  0  0  0  0
  129.0840  136.0929  134.1333 C   0  0  0  0  0  0  0  0  0  0  0  0
  1  2  1  1
  2  3  1  0
  3  4  1  0
  5  4  1  1
  5  6  1  0
  6  7  2  0
  7  8  1  0
  8  9  2  0
  9 10  1  0
 10 11  1  0
  9 12  1  0
 12 13  2  0
 13 14  1  0
 14 15  1  0
 16 14  1  6
 16 17  1  0
 17 18  1  1
 17 19  1  0
 19 20  1  1
 19 21  1  0
 21 22  1  6
 22 23  1  0
 21 24  1  0
 24 25  2  0
 25 26  1  0
 17 27  1  0
 27 28  1  0
 27 29  2  0
  8 30  1  0
 30 31  1  0
 32 31  1  1
 32 33  1  0
 33 34  1  0
 34 35  1  0
 35 36  1  0
 36 37  1  1
 36 38  1  0
 38 39  1  0
 36 40  1  0
 34 41  1  0
 41 42  1  0
 42 43  1  0
 43 44  2  0
 44 45  1  0
 45 46  1  0
 46 47  2  0
 47 48  1  0
 48 49  2  0
 49 50  1  0
 50 51  2  0
 30 52  1  1
 52 53  2  0
 52 54  1  0
 54 55  1  0
  5  1  1  0
 16  5  1  0
 44 30  1  0
 51 46  1  0
 21  1  1  0
 40 32  1  0
 47 43  1  0
 26  2  1  0
 13  6  1  0
M  END
$$$$
