
     RDKit          3D

 55 63  0  0  0  0  0  0  0  0999 V2000
  133.3721  164.6086  152.5392 C   0  0  2  0  0  0  0  0  0  0  0  0
  134.6672  164.3032  152.0320 N   0  0  0  0  0  0  0  0  0  0  0  0
  134.6537  162.9552  151.4902 C   0  0  0  0  0  0  0  0  0  0  0  0
  133.3730  162.3223  151.9142 C   0  0  0  0  0  0  0  0  0  0  0  0
  132.8251  163.2924  152.9298 C   0  0  1  0  0  0  0  0  0  0  0  0
  133.4340  162.8708  154.2484 C   0  0  0  0  0  0  0  0  0  0  0  0
  134.7410  162.8097  154.6845 C   0  0  0  0  0  0  0  0  0  0  0  0
  135.1020  162.3846  155.9402 C   0  0  0  0  0  0  0  0  0  0  0  0
  134.0466  162.0094  156.7716 C   0  0  0  0  0  0  0  0  0  0  0  0
  134.2753  161.5618  158.0625 O   0  0  0  0  0  0  0  0  0  0  0  0
  133.3676  161.7289  159.1170 C   0  0  0  0  0  0  0  0  0  0  0  0
  132.7317  162.0607  156.3627 C   0  0  0  0  0  0  0  0  0  0  0  0
  132.4148  162.4935  155.0932 C   0  0  0  0  0  0  0  0  0  0  0  0
  131.1604  162.6346  154.4623 N   0  0  0  0  0  0  0  0  0  0  0  0
  129.8875  162.3017  155.0406 C   0  0  0  0  0  0  0  0  0  0  0  0
  131.3649  163.1688  153.1366 C   0  0  1  0  0  0  0  0  0  0  0  0
  130.5374  164.3860  152.9057 C   0  0  2  0  0  0  0  0  0  0  0  0
  129.3096  163.8760  152.3744 O   0  0  0  0  0  0  0  0  0  0  0  0
  131.0362  165.3064  151.8558 C   0  0  2  0  0  0  0  0  0  0  0  0
  130.5188  164.9216  150.5896 O   0  0  0  0  0  0  0  0  0  0  0  0
  132.5146  165.5175  151.7614 C   0  0  1  0  0  0  0  0  0  0  0  0
  132.7647  166.9783  152.2057 C   0  0  0  0  0  0  0  0  0  0  0  0
  132.3587  167.9030  151.0538 C   0  0  0  0  0  0  0  0  0  0  0  0
  132.8586  165.5246  150.3189 C   0  0  0  0  0  0  0  0  0  0  0  0
  134.1042  165.3659  149.9368 C   0  0  0  0  0  0  0  0  0  0  0  0
  135.1438  165.1796  150.9829 C   0  0  0  0  0  0  0  0  0  0  0  0
  130.1211  165.0632  154.1738 C   0  0  0  0  0  0  0  0  0  0  0  0
  128.7634  165.2458  154.5546 N   0  0  0  0  0  0  0  0  0  0  0  0
  130.9907  165.5231  154.9981 O   0  0  0  0  0  0  0  0  0  0  0  0
  136.5137  162.3222  156.4307 C   0  0  1  0  0  0  0  0  0  0  0  0
  137.3522  163.1026  155.5611 C   0  0  0  0  0  0  0  0  0  0  0  0
  138.7705  163.2767  155.7881 C   0  0  1  0  0  0  0  0  0  0  0  0
  139.3886  162.5379  156.9288 C   0  0  0  0  0  0  0  0  0  0  0  0
  140.1261  163.5671  157.6091 N   0  0  0  0  0  0  0  0  0  0  0  0
  140.9404  164.1759  156.5641 C   0  0  0  0  0  0  0  0  0  0  0  0
  141.0774  163.4526  155.2743 C   0  0  2  0  0  0  0  0  0  0  0  0
  141.9890  162.3732  155.3372 O   0  0  0  0  0  0  0  0  0  0  0  0
  141.7581  164.4109  154.3148 C   0  0  0  0  0  0  0  0  0  0  0  0
  141.0520  165.6970  154.1273 C   0  0  0  0  0  0  0  0  0  0  0  0
  139.7481  163.0001  154.6367 C   0  0  0  0  0  0  0  0  0  0  0  0
  139.3707  164.5507  158.2632 C   0  0  0  0  0  0  0  0  0  0  0  0
  137.9303  164.7143  158.1660 C   0  0  0  0  0  0  0  0  0  0  0  0
  137.0385  163.6235  158.5939 C   0  0  0  0  0  0  0  0  0  0  0  0
  136.4482  162.6521  157.8635 C   0  0  0  0  0  0  0  0  0  0  0  0
  135.7155  161.9032  158.7176 N   0  0  0  0  0  0  0  0  0  0  0  0
  135.7953  162.3314  159.9733 C   0  0  0  0  0  0  0  0  0  0  0  0
  136.6254  163.4177  159.9238 C   0  0  0  0  0  0  0  0  0  0  0  0
  136.8807  164.0611  161.1266 C   0  0  0  0  0  0  0  0  0  0  0  0
  136.3397  163.6481  162.3202 C   0  0  0  0  0  0  0  0  0  0  0  0
  135.5106  162.5548  162.3361 C   0  0  0  0  0  0  0  0  0  0  0  0
  135.2392  161.8975  161.1627 C   0  0  0  0  0  0  0  0  0  0  0  0
  136.9080  160.8668  156.2411 C   0  0  0  0  0  0  0  0  0  0  0  0
  137.7565  160.5230  155.4139 O   0  0  0  0  0  0  0  0  0  0  0  0
  136.3257  159.8587  156.9996 O   0  0  0  0  0  0  0  0  0  0  0  0
  137.1093  158.8307  157.6011 C   0  0  0  0  0  0  0  0  0  0  0  0
  1  2  1  6
  2  3  1  0
  3  4  1  0
  5  4  1  6
  5  6  1  0
  6  7  2  0
  7  8  1  0
  8  9  2  0
  9 10  1  0
 10 11  1  0
  9 12  1  0
 12 13  2  0
 13 14  1  0
 14 15  1  0
 16 14  1  1
 16 17  1  0
 17 18  1  6
 17 19  1  0
 19 20  1  6
 19 21  1  0
 21 22  1  1
 22 23  1  0
 21 24  1  0
 24 25  2  0
 25 26  1  0
 17 27  1  0
 27 28  1  0
 27 29  2  0
  8 30  1  0
 30 31  1  0
 32 31  1  6
 32 33  1  0
 33 34  1  0
 34 35  1  0
 35 36  1  0
 36 37  1  1
 36 38  1  0
 38 39  1  0
 36 40  1  0
 34 41  1  0
 41 42  1  0
 42 43  1  0
 43 44  2  0
 44 45  1  0
 45 46  1  0
 46 47  2  0
 47 48  1  0
 48 49  2  0
 49 50  1  0
 50 51  2  0
 30 52  1  1
 52 53  2  0
 52 54  1  0
 54 55  1  0
  5  1  1  0
 16  5  1  0
 44 30  1  0
 51 46  1  0
 21  1  1  0
 40 32  1  0
 47 43  1  0
 26  2  1  0
 13  6  1  0
M  END
$$$$
