
     RDKit          3D

 55 63  0  0  0  0  0  0  0  0999 V2000
  127.4406  141.0220  134.2581 C   0  0  2  0  0  0  0  0  0  0  0  0
  127.6459  139.7377  134.8380 N   0  0  0  0  0  0  0  0  0  0  0  0
  128.6443  139.8502  135.8874 C   0  0  0  0  0  0  0  0  0  0  0  0
  129.2567  141.2036  135.7702 C   0  0  0  0  0  0  0  0  0  0  0  0
  128.7358  141.7078  134.4484 C   0  0  1  0  0  0  0  0  0  0  0  0
  129.7218  141.2063  133.4171 C   0  0  0  0  0  0  0  0  0  0  0  0
  130.0932  139.9337  133.0368 C   0  0  0  0  0  0  0  0  0  0  0  0
  131.0306  139.6759  132.0658 C   0  0  0  0  0  0  0  0  0  0  0  0
  131.6000  140.8013  131.4698 C   0  0  0  0  0  0  0  0  0  0  0  0
  132.5582  140.6788  130.4769 O   0  0  0  0  0  0  0  0  0  0  0  0
  133.6308  141.5664  130.3159 C   0  0  0  0  0  0  0  0  0  0  0  0
  131.2478  142.0839  131.8293 C   0  0  0  0  0  0  0  0  0  0  0  0
  130.3024  142.2964  132.8094 C   0  0  0  0  0  0  0  0  0  0  0  0
  129.7843  143.4998  133.3339 N   0  0  0  0  0  0  0  0  0  0  0  0
  130.1889  144.8250  132.9524 C   0  0  0  0  0  0  0  0  0  0  0  0
  128.7789  143.1815  134.3201 C   0  0  1  0  0  0  0  0  0  0  0  0
  127.4943  143.8796  134.0338 C   0  0  2  0  0  0  0  0  0  0  0  0
  127.6098  145.1221  134.7358 O   0  0  0  0  0  0  0  0  0  0  0  0
  126.2827  143.2463  134.6076 C   0  0  2  0  0  0  0  0  0  0  0  0
  126.0585  143.7345  135.9230 O   0  0  0  0  0  0  0  0  0  0  0  0
  126.2083  141.7518  134.5973 C   0  0  1  0  0  0  0  0  0  0  0  0
  125.0926  141.3887  133.5886 C   0  0  0  0  0  0  0  0  0  0  0  0
  123.8288  142.1628  133.9767 C   0  0  0  0  0  0  0  0  0  0  0  0
  125.6474  141.3383  135.9064 C   0  0  0  0  0  0  0  0  0  0  0  0
  125.7658  140.0957  136.3121 C   0  0  0  0  0  0  0  0  0  0  0  0
  126.4723  139.1306  135.4294 C   0  0  0  0  0  0  0  0  0  0  0  0
  127.3559  144.2927  132.6019 C   0  0  0  0  0  0  0  0  0  0  0  0
  126.9103  145.5811  132.1983 N   0  0  0  0  0  0  0  0  0  0  0  0
  127.6395  143.4840  131.6465 O   0  0  0  0  0  0  0  0  0  0  0  0
  131.4364  138.3020  131.6359 C   0  0  1  0  0  0  0  0  0  0  0  0
  132.6515  137.9337  132.3116 C   0  0  0  0  0  0  0  0  0  0  0  0
  133.2835  136.6435  132.1408 C   0  0  1  0  0  0  0  0  0  0  0  0
  132.6827  135.6996  131.1524 C   0  0  0  0  0  0  0  0  0  0  0  0
  132.5777  134.4793  131.9047 N   0  0  0  0  0  0  0  0  0  0  0  0
  133.9176  134.2713  132.4406 C   0  0  0  0  0  0  0  0  0  0  0  0
  135.0317  135.0672  131.8655 C   0  0  2  0  0  0  0  0  0  0  0  0
  135.4720  134.5813  130.6124 O   0  0  0  0  0  0  0  0  0  0  0  0
  136.2349  134.8297  132.7588 C   0  0  0  0  0  0  0  0  0  0  0  0
  136.7265  133.4347  132.7688 C   0  0  0  0  0  0  0  0  0  0  0  0
  134.7789  136.5870  131.7966 C   0  0  0  0  0  0  0  0  0  0  0  0
  131.6371  134.4634  132.9442 C   0  0  0  0  0  0  0  0  0  0  0  0
  130.8956  135.6141  133.4312 C   0  0  0  0  0  0  0  0  0  0  0  0
  130.0029  136.3496  132.5199 C   0  0  0  0  0  0  0  0  0  0  0  0
  130.2349  137.4674  131.7973 C   0  0  0  0  0  0  0  0  0  0  0  0
  129.0943  137.7530  131.1308 N   0  0  0  0  0  0  0  0  0  0  0  0
  128.1239  136.8786  131.3765 C   0  0  0  0  0  0  0  0  0  0  0  0
  128.6712  135.9805  132.2515 C   0  0  0  0  0  0  0  0  0  0  0  0
  127.8509  134.9438  132.6735 C   0  0  0  0  0  0  0  0  0  0  0  0
  126.5516  134.8039  132.2491 C   0  0  0  0  0  0  0  0  0  0  0  0
  126.0322  135.7216  131.3712 C   0  0  0  0  0  0  0  0  0  0  0  0
  126.8188  136.7581  130.9358 C   0  0  0  0  0  0  0  0  0  0  0  0
  131.7762  138.4597  130.1630 C   0  0  0  0  0  0  0  0  0  0  0  0
  130.9212  138.3480  129.2805 O   0  0  0  0  0  0  0  0  0  0  0  0
  133.0726  138.7403  129.7496 O   0  0  0  0  0  0  0  0  0  0  0  0
  133.3516  139.7989  128.8361 C   0  0  0  0  0  0  0  0  0  0  0  0
  1  2  1  1
  2  3  1  0
  3  4  1  0
  5  4  1  1
  5  6  1  0
  6  7  2  0
  7  8  1  0
  8  9  2  0
  9 10  1  0
 10 11  1  0
  9 12  1  0
 12 13  2  0
 13 14  1  0
 14 15  1  0
 16 14  1  6
 16 17  1  0
 17 18  1  1
 17 19  1  0
 19 20  1  1
 19 21  1  0
 21 22  1  6
 22 23  1  0
 21 24  1  0
 24 25  2  0
 25 26  1  0
 17 27  1  0
 27 28  1  0
 27 29  2  0
  8 30  1  0
 30 31  1  0
 32 31  1  6
 32 33  1  0
 33 34  1  0
 34 35  1  0
 35 36  1  0
 36 37  1  6
 36 38  1  0
 38 39  1  0
 36 40  1  0
 34 41  1  0
 41 42  1  0
 42 43  1  0
 43 44  2  0
 44 45  1  0
 45 46  1  0
 46 47  2  0
 47 48  1  0
 48 49  2  0
 49 50  1  0
 50 51  2  0
 30 52  1  6
 52 53  2  0
 52 54  1  0
 54 55  1  0
  5  1  1  0
 16  5  1  0
 44 30  1  0
 51 46  1  0
 21  1  1  0
 40 32  1  0
 47 43  1  0
 26  2  1  0
 13  6  1  0
M  END
$$$$
