
     RDKit          3D

 55 63  0  0  0  0  0  0  0  0999 V2000
  190.0165  160.8183  127.6570 C   0  0  2  0  0  0  0  0  0  0  0  0
  188.8449  161.3279  127.0281 N   0  0  0  0  0  0  0  0  0  0  0  0
  187.7575  160.3849  127.2259 C   0  0  0  0  0  0  0  0  0  0  0  0
  188.3528  159.1343  127.7755 C   0  0  0  0  0  0  0  0  0  0  0  0
  189.8352  159.3523  127.6092 C   0  0  1  0  0  0  0  0  0  0  0  0
  190.1545  158.8556  126.2169 C   0  0  0  0  0  0  0  0  0  0  0  0
  189.7300  159.2654  124.9702 C   0  0  0  0  0  0  0  0  0  0  0  0
  190.1346  158.6720  123.7988 C   0  0  0  0  0  0  0  0  0  0  0  0
  191.0218  157.6054  123.9435 C   0  0  0  0  0  0  0  0  0  0  0  0
  191.5056  156.9211  122.8404 O   0  0  0  0  0  0  0  0  0  0  0  0
  192.8240  156.4594  122.7270 C   0  0  0  0  0  0  0  0  0  0  0  0
  191.4628  157.1751  125.1759 C   0  0  0  0  0  0  0  0  0  0  0  0
  191.0307  157.7996  126.3259 C   0  0  0  0  0  0  0  0  0  0  0  0
  191.3438  157.5434  127.6779 N   0  0  0  0  0  0  0  0  0  0  0  0
  192.2007  156.4939  128.1570 C   0  0  0  0  0  0  0  0  0  0  0  0
  190.6600  158.5102  128.5040 C   0  0  1  0  0  0  0  0  0  0  0  0
  191.6041  159.2091  129.4204 C   0  0  2  0  0  0  0  0  0  0  0  0
  191.6122  158.3952  130.5982 O   0  0  0  0  0  0  0  0  0  0  0  0
  191.1607  160.5406  129.8985 C   0  0  2  0  0  0  0  0  0  0  0  0
  190.3865  160.3967  131.0813 O   0  0  0  0  0  0  0  0  0  0  0  0
  190.4482  161.4268  128.9257 C   0  0  1  0  0  0  0  0  0  0  0  0
  191.4108  162.6036  128.6388 C   0  0  0  0  0  0  0  0  0  0  0  0
  191.7873  163.2484  129.9765 C   0  0  0  0  0  0  0  0  0  0  0  0
  189.3266  162.0606  129.6603 C   0  0  0  0  0  0  0  0  0  0  0  0
  188.3432  162.6278  129.0015 C   0  0  0  0  0  0  0  0  0  0  0  0
  188.3893  162.6125  127.5158 C   0  0  0  0  0  0  0  0  0  0  0  0
  193.0237  159.1638  128.9482 C   0  0  0  0  0  0  0  0  0  0  0  0
  194.1406  159.1325  129.8274 N   0  0  0  0  0  0  0  0  0  0  0  0
  193.3078  159.1512  127.6966 O   0  0  0  0  0  0  0  0  0  0  0  0
  189.6908  159.1113  122.4397 C   0  0  1  0  0  0  0  0  0  0  0  0
  189.3986  160.5192  122.4687 C   0  0  0  0  0  0  0  0  0  0  0  0
  188.9817  161.2579  121.2967 C   0  0  1  0  0  0  0  0  0  0  0  0
  188.7678  160.4937  120.0320 C   0  0  0  0  0  0  0  0  0  0  0  0
  189.5149  161.2582  119.0710 N   0  0  0  0  0  0  0  0  0  0  0  0
  189.0195  162.6199  119.2320 C   0  0  0  0  0  0  0  0  0  0  0  0
  187.7626  162.8206  119.9971 C   0  0  2  0  0  0  0  0  0  0  0  0
  186.6029  162.5010  119.2534 O   0  0  0  0  0  0  0  0  0  0  0  0
  187.6232  164.3164  120.2093 C   0  0  0  0  0  0  0  0  0  0  0  0
  188.7191  165.1236  119.6301 C   0  0  0  0  0  0  0  0  0  0  0  0
  187.7241  162.1353  121.3782 C   0  0  0  0  0  0  0  0  0  0  0  0
  190.9106  161.2364  119.2020 C   0  0  0  0  0  0  0  0  0  0  0  0
  191.6466  160.6590  120.3137 C   0  0  0  0  0  0  0  0  0  0  0  0
  191.5104  159.2244  120.6162 C   0  0  0  0  0  0  0  0  0  0  0  0
  190.7097  158.6009  121.5082 C   0  0  0  0  0  0  0  0  0  0  0  0
  190.9669  157.2772  121.4149 N   0  0  0  0  0  0  0  0  0  0  0  0
  191.8948  156.9978  120.5053 C   0  0  0  0  0  0  0  0  0  0  0  0
  192.2556  158.2106  119.9850 C   0  0  0  0  0  0  0  0  0  0  0  0
  193.2273  158.1985  118.9943 C   0  0  0  0  0  0  0  0  0  0  0  0
  193.8129  157.0410  118.5413 C   0  0  0  0  0  0  0  0  0  0  0  0
  193.4290  155.8405  119.0838 C   0  0  0  0  0  0  0  0  0  0  0  0
  192.4704  155.8200  120.0652 C   0  0  0  0  0  0  0  0  0  0  0  0
  188.3716  158.3870  122.2283 C   0  0  0  0  0  0  0  0  0  0  0  0
  187.3452  158.9848  121.8942 O   0  0  0  0  0  0  0  0  0  0  0  0
  188.2693  157.0124  122.4020 O   0  0  0  0  0  0  0  0  0  0  0  0
  187.9147  156.1487  121.3244 C   0  0  0  0  0  0  0  0  0  0  0  0
  1  2  1  1
  2  3  1  0
  3  4  1  0
  5  4  1  1
  5  6  1  0
  6  7  2  0
  7  8  1  0
  8  9  2  0
  9 10  1  0
 10 11  1  0
  9 12  1  0
 12 13  2  0
 13 14  1  0
 14 15  1  0
 16 14  1  6
 16 17  1  0
 17 18  1  1
 17 19  1  0
 19 20  1  1
 19 21  1  0
 21 22  1  6
 22 23  1  0
 21 24  1  0
 24 25  2  0
 25 26  1  0
 17 27  1  0
 27 28  1  0
 27 29  2  0
  8 30  1  0
 30 31  1  0
 32 31  1  1
 32 33  1  0
 33 34  1  0
 34 35  1  0
 35 36  1  0
 36 37  1  6
 36 38  1  0
 38 39  1  0
 36 40  1  0
 34 41  1  0
 41 42  1  0
 42 43  1  0
 43 44  2  0
 44 45  1  0
 45 46  1  0
 46 47  2  0
 47 48  1  0
 48 49  2  0
 49 50  1  0
 50 51  2  0
 30 52  1  6
 52 53  2  0
 52 54  1  0
 54 55  1  0
  5  1  1  0
 16  5  1  0
 44 30  1  0
 51 46  1  0
 21  1  1  0
 40 32  1  0
 47 43  1  0
 26  2  1  0
 13  6  1  0
M  END
$$$$
