
     RDKit          3D

 55 63  0  0  0  0  0  0  0  0999 V2000
  187.6474  162.1400  134.9397 C   0  0  2  0  0  0  0  0  0  0  0  0
  186.2844  162.5442  134.8571 N   0  0  0  0  0  0  0  0  0  0  0  0
  186.1816  163.9356  135.2623 C   0  0  0  0  0  0  0  0  0  0  0  0
  187.4920  164.3191  135.8591 C   0  0  0  0  0  0  0  0  0  0  0  0
  188.2082  163.0004  136.0025 C   0  0  1  0  0  0  0  0  0  0  0  0
  187.7854  162.4651  137.3522 C   0  0  0  0  0  0  0  0  0  0  0  0
  186.5542  162.1035  137.8579 C   0  0  0  0  0  0  0  0  0  0  0  0
  186.3674  161.6367  139.1366 C   0  0  0  0  0  0  0  0  0  0  0  0
  187.5213  161.5453  139.9151 C   0  0  0  0  0  0  0  0  0  0  0  0
  187.4696  161.0895  141.2222 O   0  0  0  0  0  0  0  0  0  0  0  0
  188.5469  161.1625  142.1156 C   0  0  0  0  0  0  0  0  0  0  0  0
  188.7638  161.8989  139.4359 C   0  0  0  0  0  0  0  0  0  0  0  0
  188.9053  162.3631  138.1460 C   0  0  0  0  0  0  0  0  0  0  0  0
  190.0585  162.7739  137.4440 N   0  0  0  0  0  0  0  0  0  0  0  0
  191.3920  162.8268  137.9773 C   0  0  0  0  0  0  0  0  0  0  0  0
  189.6789  163.1345  136.0983 C   0  0  1  0  0  0  0  0  0  0  0  0
  190.4979  162.4081  135.0877 C   0  0  2  0  0  0  0  0  0  0  0  0
  191.6210  163.2681  134.8671 O   0  0  0  0  0  0  0  0  0  0  0  0
  189.8781  162.2645  133.7486 C   0  0  2  0  0  0  0  0  0  0  0  0
  190.1955  163.3927  132.9452 O   0  0  0  0  0  0  0  0  0  0  0  0
  188.4081  161.9913  133.6885 C   0  0  1  0  0  0  0  0  0  0  0  0
  188.2659  160.5439  133.1606 C   0  0  0  0  0  0  0  0  0  0  0  0
  188.8160  160.5016  131.7314 C   0  0  0  0  0  0  0  0  0  0  0  0
  187.8590  162.8222  132.5897 C   0  0  0  0  0  0  0  0  0  0  0  0
  186.5672  163.0405  132.5098 C   0  0  0  0  0  0  0  0  0  0  0  0
  185.6855  162.4373  133.5435 C   0  0  0  0  0  0  0  0  0  0  0  0
  191.1124  161.1521  135.6217 C   0  0  0  0  0  0  0  0  0  0  0  0
  192.5133  160.9094  135.6331 N   0  0  0  0  0  0  0  0  0  0  0  0
  190.3866  160.2110  136.1063 O   0  0  0  0  0  0  0  0  0  0  0  0
  185.0405  161.2316  139.6957 C   0  0  1  0  0  0  0  0  0  0  0  0
  184.4768  160.1946  138.8739 C   0  0  0  0  0  0  0  0  0  0  0  0
  183.2119  159.5586  139.1719 C   0  0  1  0  0  0  0  0  0  0  0  0
  182.4319  160.0724  140.3366 C   0  0  0  0  0  0  0  0  0  0  0  0
  182.1156  158.8710  141.0596 N   0  0  0  0  0  0  0  0  0  0  0  0
  181.5090  157.9997  140.0602 C   0  0  0  0  0  0  0  0  0  0  0  0
  181.0792  158.6046  138.7739 C   0  0  2  0  0  0  0  0  0  0  0  0
  179.8607  159.3154  138.8744 O   0  0  0  0  0  0  0  0  0  0  0  0
  180.7200  157.4513  137.8558 C   0  0  0  0  0  0  0  0  0  0  0  0
  179.3622  156.9021  138.0621 C   0  0  0  0  0  0  0  0  0  0  0  0
  182.1484  159.4633  138.0683 C   0  0  0  0  0  0  0  0  0  0  0  0
  183.1865  158.2145  141.6823 C   0  0  0  0  0  0  0  0  0  0  0  0
  184.5919  158.5430  141.5153 C   0  0  0  0  0  0  0  0  0  0  0  0
  185.0815  159.8799  141.8911 C   0  0  0  0  0  0  0  0  0  0  0  0
  185.2767  160.9762  141.1258 C   0  0  0  0  0  0  0  0  0  0  0  0
  185.7508  161.9475  141.9375 N   0  0  0  0  0  0  0  0  0  0  0  0
  185.8756  161.5466  143.1985 C   0  0  0  0  0  0  0  0  0  0  0  0
  185.4593  160.2434  143.1975 C   0  0  0  0  0  0  0  0  0  0  0  0
  185.4894  159.5796  144.4159 C   0  0  0  0  0  0  0  0  0  0  0  0
  185.9116  160.1781  145.5784 C   0  0  0  0  0  0  0  0  0  0  0  0
  186.3231  161.4867  145.5458 C   0  0  0  0  0  0  0  0  0  0  0  0
  186.3047  162.1697  144.3560 C   0  0  0  0  0  0  0  0  0  0  0  0
  184.1704  162.4646  139.5159 C   0  0  0  0  0  0  0  0  0  0  0  0
  183.1697  162.4575  138.7942 O   0  0  0  0  0  0  0  0  0  0  0  0
  184.4686  163.6567  140.1642 O   0  0  0  0  0  0  0  0  0  0  0  0
  184.6202  164.8788  139.4457 C   0  0  0  0  0  0  0  0  0  0  0  0
  1  2  1  6
  2  3  1  0
  3  4  1  0
  5  4  1  6
  5  6  1  0
  6  7  2  0
  7  8  1  0
  8  9  2  0
  9 10  1  0
 10 11  1  0
  9 12  1  0
 12 13  2  0
 13 14  1  0
 14 15  1  0
 16 14  1  1
 16 17  1  0
 17 18  1  6
 17 19  1  0
 19 20  1  6
 19 21  1  0
 21 22  1  6
 22 23  1  0
 21 24  1  0
 24 25  2  0
 25 26  1  0
 17 27  1  0
 27 28  1  0
 27 29  2  0
  8 30  1  0
 30 31  1  0
 32 31  1  6
 32 33  1  0
 33 34  1  0
 34 35  1  0
 35 36  1  0
 36 37  1  1
 36 38  1  0
 38 39  1  0
 36 40  1  0
 34 41  1  0
 41 42  1  0
 42 43  1  0
 43 44  2  0
 44 45  1  0
 45 46  1  0
 46 47  2  0
 47 48  1  0
 48 49  2  0
 49 50  1  0
 50 51  2  0
 30 52  1  1
 52 53  2  0
 52 54  1  0
 54 55  1  0
  5  1  1  0
 16  5  1  0
 44 30  1  0
 51 46  1  0
 21  1  1  0
 40 32  1  0
 47 43  1  0
 26  2  1  0
 13  6  1  0
M  END
$$$$
