
     RDKit          3D

 55 63  0  0  0  0  0  0  0  0999 V2000
  186.7134  162.9154  136.2094 C   0  0  2  0  0  0  0  0  0  0  0  0
  185.5374  163.5838  136.6549 N   0  0  0  0  0  0  0  0  0  0  0  0
  185.5606  163.6585  138.1057 C   0  0  0  0  0  0  0  0  0  0  0  0
  186.6662  162.7766  138.5751 C   0  0  0  0  0  0  0  0  0  0  0  0
  187.0580  162.0185  137.3324 C   0  0  1  0  0  0  0  0  0  0  0  0
  186.1487  160.8104  137.3027 C   0  0  0  0  0  0  0  0  0  0  0  0
  184.7778  160.6883  137.2126 C   0  0  0  0  0  0  0  0  0  0  0  0
  184.1231  159.4803  137.2079 C   0  0  0  0  0  0  0  0  0  0  0  0
  184.9422  158.3551  137.3008 C   0  0  0  0  0  0  0  0  0  0  0  0
  184.4069  157.0775  137.3067 O   0  0  0  0  0  0  0  0  0  0  0  0
  185.1542  155.9211  137.5682 C   0  0  0  0  0  0  0  0  0  0  0  0
  186.3140  158.4472  137.3913 C   0  0  0  0  0  0  0  0  0  0  0  0
  186.9295  159.6803  137.3929 C   0  0  0  0  0  0  0  0  0  0  0  0
  188.2973  160.0190  137.4699 N   0  0  0  0  0  0  0  0  0  0  0  0
  189.3859  159.0906  137.6056 C   0  0  0  0  0  0  0  0  0  0  0  0
  188.4252  161.4550  137.3908 C   0  0  1  0  0  0  0  0  0  0  0  0
  189.3765  161.8593  136.3178 C   0  0  2  0  0  0  0  0  0  0  0  0
  190.6456  161.9085  136.9787 O   0  0  0  0  0  0  0  0  0  0  0  0
  189.1891  163.2291  135.7824 C   0  0  2  0  0  0  0  0  0  0  0  0
  189.9344  164.1576  136.5579 O   0  0  0  0  0  0  0  0  0  0  0  0
  187.7869  163.7205  135.6048 C   0  0  1  0  0  0  0  0  0  0  0  0
  187.5633  163.8250  134.0774 C   0  0  0  0  0  0  0  0  0  0  0  0
  188.4068  164.9905  133.5509 C   0  0  0  0  0  0  0  0  0  0  0  0
  187.7626  165.1312  136.0615 C   0  0  0  0  0  0  0  0  0  0  0  0
  186.6196  165.7188  136.3280 C   0  0  0  0  0  0  0  0  0  0  0  0
  185.3681  164.9341  136.1611 C   0  0  0  0  0  0  0  0  0  0  0  0
  189.5627  160.8069  135.2700 C   0  0  0  0  0  0  0  0  0  0  0  0
  190.8311  160.2710  134.9154 N   0  0  0  0  0  0  0  0  0  0  0  0
  188.5623  160.3262  134.6255 O   0  0  0  0  0  0  0  0  0  0  0  0
  182.6386  159.3317  137.1009 C   0  0  1  0  0  0  0  0  0  0  0  0
  182.0381  160.6347  136.9994 C   0  0  0  0  0  0  0  0  0  0  0  0
  180.6134  160.8314  136.8420 C   0  0  1  0  0  0  0  0  0  0  0  0
  179.7363  159.6237  136.8748 C   0  0  0  0  0  0  0  0  0  0  0  0
  178.9209  159.7938  135.7034 N   0  0  0  0  0  0  0  0  0  0  0  0
  178.3729  161.1381  135.8394 C   0  0  0  0  0  0  0  0  0  0  0  0
  178.4763  161.8045  137.1624 C   0  0  2  0  0  0  0  0  0  0  0  0
  177.5229  161.3359  138.0960 O   0  0  0  0  0  0  0  0  0  0  0  0
  178.0572  163.2472  136.9505 C   0  0  0  0  0  0  0  0  0  0  0  0
  176.6383  163.4252  136.5721 C   0  0  0  0  0  0  0  0  0  0  0  0
  179.8874  161.8022  137.7846 C   0  0  0  0  0  0  0  0  0  0  0  0
  179.5668  159.6616  134.4660 C   0  0  0  0  0  0  0  0  0  0  0  0
  181.0016  159.5433  134.2697 C   0  0  0  0  0  0  0  0  0  0  0  0
  181.7323  158.4138  134.8683 C   0  0  0  0  0  0  0  0  0  0  0  0
  182.4172  158.3456  136.0310 C   0  0  0  0  0  0  0  0  0  0  0  0
  182.9189  157.0939  136.1232 N   0  0  0  0  0  0  0  0  0  0  0  0
  182.5973  156.3342  135.0811 C   0  0  0  0  0  0  0  0  0  0  0  0
  181.8472  157.1436  134.2724 C   0  0  0  0  0  0  0  0  0  0  0  0
  181.3753  156.5813  133.0947 C   0  0  0  0  0  0  0  0  0  0  0  0
  181.6342  155.2805  132.7359 C   0  0  0  0  0  0  0  0  0  0  0  0
  182.3900  154.4947  133.5689 C   0  0  0  0  0  0  0  0  0  0  0  0
  182.8708  155.0222  134.7407 C   0  0  0  0  0  0  0  0  0  0  0  0
  182.2259  158.7547  138.4449 C   0  0  0  0  0  0  0  0  0  0  0  0
  181.4194  157.8255  138.5362 O   0  0  0  0  0  0  0  0  0  0  0  0
  182.7466  159.2534  139.6326 O   0  0  0  0  0  0  0  0  0  0  0  0
  182.5049  158.6093  140.8815 C   0  0  0  0  0  0  0  0  0  0  0  0
  1  2  1  1
  2  3  1  0
  3  4  1  0
  5  4  1  1
  5  6  1  0
  6  7  2  0
  7  8  1  0
  8  9  2  0
  9 10  1  0
 10 11  1  0
  9 12  1  0
 12 13  2  0
 13 14  1  0
 14 15  1  0
 16 14  1  6
 16 17  1  0
 17 18  1  1
 17 19  1  0
 19 20  1  1
 19 21  1  0
 21 22  1  6
 22 23  1  0
 21 24  1  0
 24 25  2  0
 25 26  1  0
 17 27  1  0
 27 28  1  0
 27 29  2  0
  8 30  1  0
 30 31  1  0
 32 31  1  1
 32 33  1  0
 33 34  1  0
 34 35  1  0
 35 36  1  0
 36 37  1  1
 36 38  1  0
 38 39  1  0
 36 40  1  0
 34 41  1  0
 41 42  1  0
 42 43  1  0
 43 44  2  0
 44 45  1  0
 45 46  1  0
 46 47  2  0
 47 48  1  0
 48 49  2  0
 49 50  1  0
 50 51  2  0
 30 52  1  1
 52 53  2  0
 52 54  1  0
 54 55  1  0
  5  1  1  0
 16  5  1  0
 44 30  1  0
 51 46  1  0
 21  1  1  0
 40 32  1  0
 47 43  1  0
 26  2  1  0
 13  6  1  0
M  END
$$$$
