
     RDKit          3D

 55 63  0  0  0  0  0  0  0  0999 V2000
  189.4825  159.3104  123.8496 C   0  0  2  0  0  0  0  0  0  0  0  0
  188.4743  160.2959  123.6486 N   0  0  0  0  0  0  0  0  0  0  0  0
  187.5025  159.7865  122.6964 C   0  0  0  0  0  0  0  0  0  0  0  0
  188.0767  158.5472  122.1005 C   0  0  0  0  0  0  0  0  0  0  0  0
  189.5079  158.5643  122.5741 C   0  0  1  0  0  0  0  0  0  0  0  0
  190.2577  159.3723  121.5386 C   0  0  0  0  0  0  0  0  0  0  0  0
  190.1440  160.6854  121.1322 C   0  0  0  0  0  0  0  0  0  0  0  0
  190.9266  161.2457  120.1516 C   0  0  0  0  0  0  0  0  0  0  0  0
  191.8671  160.3918  119.5754 C   0  0  0  0  0  0  0  0  0  0  0  0
  192.7179  160.8331  118.5752 O   0  0  0  0  0  0  0  0  0  0  0  0
  193.4653  159.9774  117.7547 C   0  0  0  0  0  0  0  0  0  0  0  0
  192.0030  159.0762  119.9620 C   0  0  0  0  0  0  0  0  0  0  0  0
  191.1961  158.5551  120.9503 C   0  0  0  0  0  0  0  0  0  0  0  0
  191.1552  157.2595  121.5081 N   0  0  0  0  0  0  0  0  0  0  0  0
  191.9728  156.1470  121.1086 C   0  0  0  0  0  0  0  0  0  0  0  0
  190.1543  157.2333  122.5484 C   0  0  1  0  0  0  0  0  0  0  0  0
  190.7141  156.7216  123.8308 C   0  0  2  0  0  0  0  0  0  0  0  0
  190.5007  155.3074  123.7636 O   0  0  0  0  0  0  0  0  0  0  0  0
  189.9919  157.1430  125.0551 C   0  0  2  0  0  0  0  0  0  0  0  0
  188.9471  156.2235  125.3410 O   0  0  0  0  0  0  0  0  0  0  0  0
  189.4684  158.5439  125.1060 C   0  0  1  0  0  0  0  0  0  0  0  0
  190.3162  159.2761  126.1732 C   0  0  0  0  0  0  0  0  0  0  0  0
  189.5758  160.5560  126.5743 C   0  0  0  0  0  0  0  0  0  0  0  0
  188.1174  158.4782  125.7141 C   0  0  0  0  0  0  0  0  0  0  0  0
  187.2896  159.4896  125.5934 C   0  0  0  0  0  0  0  0  0  0  0  0
  187.7439  160.6854  124.8362 C   0  0  0  0  0  0  0  0  0  0  0  0
  192.2027  156.8521  123.9161 C   0  0  0  0  0  0  0  0  0  0  0  0
  193.0808  155.7396  124.0304 N   0  0  0  0  0  0  0  0  0  0  0  0
  192.7717  158.0022  123.8900 O   0  0  0  0  0  0  0  0  0  0  0  0
  190.8219  162.6701  119.7072 C   0  0  1  0  0  0  0  0  0  0  0  0
  189.8819  163.3610  120.5485 C   0  0  0  0  0  0  0  0  0  0  0  0
  189.5862  164.7696  120.4018 C   0  0  1  0  0  0  0  0  0  0  0  0
  190.2280  165.5013  119.2696 C   0  0  0  0  0  0  0  0  0  0  0  0
  190.7761  166.6629  119.9146 N   0  0  0  0  0  0  0  0  0  0  0  0
  189.6516  167.2301  120.6491 C   0  0  0  0  0  0  0  0  0  0  0  0
  188.2863  166.7495  120.3173 C   0  0  2  0  0  0  0  0  0  0  0  0
  187.7741  167.3123  119.1252 O   0  0  0  0  0  0  0  0  0  0  0  0
  187.3620  167.3151  121.3793 C   0  0  0  0  0  0  0  0  0  0  0  0
  187.4505  168.7814  121.5526 C   0  0  0  0  0  0  0  0  0  0  0  0
  188.1202  165.2163  120.3052 C   0  0  0  0  0  0  0  0  0  0  0  0
  191.8561  166.4466  120.7821 C   0  0  0  0  0  0  0  0  0  0  0  0
  192.3475  165.1489  121.2132 C   0  0  0  0  0  0  0  0  0  0  0  0
  192.8446  164.1858  120.2165 C   0  0  0  0  0  0  0  0  0  0  0  0
  192.2076  163.1572  119.6150 C   0  0  0  0  0  0  0  0  0  0  0  0
  193.0999  162.5660  118.7896 N   0  0  0  0  0  0  0  0  0  0  0  0
  194.2913  163.1546  118.8159 C   0  0  0  0  0  0  0  0  0  0  0  0
  194.1579  164.1817  119.7097 C   0  0  0  0  0  0  0  0  0  0  0  0
  195.2799  164.9700  119.9237 C   0  0  0  0  0  0  0  0  0  0  0  0
  196.4756  164.7509  119.2833 C   0  0  0  0  0  0  0  0  0  0  0  0
  196.5768  163.7121  118.3925 C   0  0  0  0  0  0  0  0  0  0  0  0
  195.4846  162.9149  118.1597 C   0  0  0  0  0  0  0  0  0  0  0  0
  190.1996  162.5819  118.3234 C   0  0  0  0  0  0  0  0  0  0  0  0
  188.9784  162.6243  118.1532 O   0  0  0  0  0  0  0  0  0  0  0  0
  190.9881  162.4515  117.1868 O   0  0  0  0  0  0  0  0  0  0  0  0
  190.4168  162.4361  115.8806 C   0  0  0  0  0  0  0  0  0  0  0  0
  1  2  1  6
  2  3  1  0
  3  4  1  0
  5  4  1  6
  5  6  1  0
  6  7  2  0
  7  8  1  0
  8  9  2  0
  9 10  1  0
 10 11  1  0
  9 12  1  0
 12 13  2  0
 13 14  1  0
 14 15  1  0
 16 14  1  6
 16 17  1  0
 17 18  1  6
 17 19  1  0
 19 20  1  6
 19 21  1  0
 21 22  1  1
 22 23  1  0
 21 24  1  0
 24 25  2  0
 25 26  1  0
 17 27  1  0
 27 28  1  0
 27 29  2  0
  8 30  1  0
 30 31  1  0
 32 31  1  6
 32 33  1  0
 33 34  1  0
 34 35  1  0
 35 36  1  0
 36 37  1  6
 36 38  1  0
 38 39  1  0
 36 40  1  0
 34 41  1  0
 41 42  1  0
 42 43  1  0
 43 44  2  0
 44 45  1  0
 45 46  1  0
 46 47  2  0
 47 48  1  0
 48 49  2  0
 49 50  1  0
 50 51  2  0
 30 52  1  6
 52 53  2  0
 52 54  1  0
 54 55  1  0
  5  1  1  0
 16  5  1  0
 44 30  1  0
 51 46  1  0
 21  1  1  0
 40 32  1  0
 47 43  1  0
 26  2  1  0
 13  6  1  0
M  END
$$$$
