
     RDKit          3D

 55 63  0  0  0  0  0  0  0  0999 V2000
  132.5552  139.2124  132.5474 C   0  0  2  0  0  0  0  0  0  0  0  0
  133.4021  138.3246  131.8244 N   0  0  0  0  0  0  0  0  0  0  0  0
  133.8673  138.9942  130.6219 C   0  0  0  0  0  0  0  0  0  0  0  0
  133.0699  140.2446  130.4768 C   0  0  0  0  0  0  0  0  0  0  0  0
  131.9758  140.0803  131.5009 C   0  0  1  0  0  0  0  0  0  0  0  0
  130.8736  139.3312  130.7858 C   0  0  0  0  0  0  0  0  0  0  0  0
  130.8301  138.0772  130.2134 C   0  0  0  0  0  0  0  0  0  0  0  0
  129.7166  137.5661  129.5914 C   0  0  0  0  0  0  0  0  0  0  0  0
  128.6036  138.4067  129.5709 C   0  0  0  0  0  0  0  0  0  0  0  0
  127.4176  138.0110  128.9744 O   0  0  0  0  0  0  0  0  0  0  0  0
  126.2085  138.7069  129.1081 C   0  0  0  0  0  0  0  0  0  0  0  0
  128.6185  139.6637  130.1352 C   0  0  0  0  0  0  0  0  0  0  0  0
  129.7581  140.1368  130.7490 C   0  0  0  0  0  0  0  0  0  0  0  0
  130.0061  141.3689  131.3908 N   0  0  0  0  0  0  0  0  0  0  0  0
  129.0743  142.4567  131.5090 C   0  0  0  0  0  0  0  0  0  0  0  0
  131.3532  141.3589  131.9102 C   0  0  1  0  0  0  0  0  0  0  0  0
  131.3808  141.6980  133.3607 C   0  0  2  0  0  0  0  0  0  0  0  0
  131.5172  143.1231  133.3821 O   0  0  0  0  0  0  0  0  0  0  0  0
  132.5627  141.2059  134.1083 C   0  0  2  0  0  0  0  0  0  0  0  0
  133.6116  142.1620  134.0388 O   0  0  0  0  0  0  0  0  0  0  0  0
  133.0862  139.8467  133.7647 C   0  0  1  0  0  0  0  0  0  0  0  0
  132.7865  138.9531  134.9917 C   0  0  0  0  0  0  0  0  0  0  0  0
  133.6900  139.4059  136.1432 C   0  0  0  0  0  0  0  0  0  0  0  0
  134.5660  139.9441  133.7533 C   0  0  0  0  0  0  0  0  0  0  0  0
  135.2842  139.0100  133.1750 C   0  0  0  0  0  0  0  0  0  0  0  0
  134.5753  137.8684  132.5394 C   0  0  0  0  0  0  0  0  0  0  0  0
  130.0722  141.4566  134.0459 C   0  0  0  0  0  0  0  0  0  0  0  0
  129.7037  142.0772  135.2709 N   0  0  0  0  0  0  0  0  0  0  0  0
  129.1990  140.6582  133.5487 O   0  0  0  0  0  0  0  0  0  0  0  0
  129.6511  136.2048  128.9751 C   0  0  1  0  0  0  0  0  0  0  0  0
  128.5797  135.4613  129.5814 C   0  0  0  0  0  0  0  0  0  0  0  0
  128.2296  134.1176  129.1751 C   0  0  1  0  0  0  0  0  0  0  0  0
  129.0818  133.4589  128.1412 C   0  0  0  0  0  0  0  0  0  0  0  0
  128.1133  132.9695  127.1986 N   0  0  0  0  0  0  0  0  0  0  0  0
  127.1744  132.2063  128.0121 C   0  0  0  0  0  0  0  0  0  0  0  0
  127.5778  131.8497  129.3960 C   0  0  2  0  0  0  0  0  0  0  0  0
  128.4839  130.7650  129.4481 O   0  0  0  0  0  0  0  0  0  0  0  0
  126.3417  131.2868  130.0722 C   0  0  0  0  0  0  0  0  0  0  0  0
  125.3306  132.2999  130.4451 C   0  0  0  0  0  0  0  0  0  0  0  0
  128.0954  133.0268  130.2475 C   0  0  0  0  0  0  0  0  0  0  0  0
  127.4253  133.9346  126.4495 C   0  0  0  0  0  0  0  0  0  0  0  0
  127.4807  135.3702  126.6657 C   0  0  0  0  0  0  0  0  0  0  0  0
  128.7669  136.0786  126.5562 C   0  0  0  0  0  0  0  0  0  0  0  0
  129.6453  136.4305  127.5206 C   0  0  0  0  0  0  0  0  0  0  0  0
  130.6659  137.0747  126.9121 N   0  0  0  0  0  0  0  0  0  0  0  0
  130.5046  137.1629  125.5957 C   0  0  0  0  0  0  0  0  0  0  0  0
  129.3123  136.5412  125.3437 C   0  0  0  0  0  0  0  0  0  0  0  0
  128.9039  136.4924  124.0183 C   0  0  0  0  0  0  0  0  0  0  0  0
  129.6410  137.0333  122.9928 C   0  0  0  0  0  0  0  0  0  0  0  0
  130.8328  137.6504  123.2787 C   0  0  0  0  0  0  0  0  0  0  0  0
  131.2635  137.7146  124.5799 C   0  0  0  0  0  0  0  0  0  0  0  0
  130.9503  135.5418  129.4017 C   0  0  0  0  0  0  0  0  0  0  0  0
  131.3175  135.5233  130.5795 O   0  0  0  0  0  0  0  0  0  0  0  0
  131.7809  134.9235  128.4752 O   0  0  0  0  0  0  0  0  0  0  0  0
  133.1824  135.1827  128.4400 C   0  0  0  0  0  0  0  0  0  0  0  0
  1  2  1  6
  2  3  1  0
  3  4  1  0
  5  4  1  6
  5  6  1  0
  6  7  2  0
  7  8  1  0
  8  9  2  0
  9 10  1  0
 10 11  1  0
  9 12  1  0
 12 13  2  0
 13 14  1  0
 14 15  1  0
 16 14  1  1
 16 17  1  0
 17 18  1  6
 17 19  1  0
 19 20  1  6
 19 21  1  0
 21 22  1  1
 22 23  1  0
 21 24  1  0
 24 25  2  0
 25 26  1  0
 17 27  1  0
 27 28  1  0
 27 29  2  0
  8 30  1  0
 30 31  1  0
 32 31  1  1
 32 33  1  0
 33 34  1  0
 34 35  1  0
 35 36  1  0
 36 37  1  6
 36 38  1  0
 38 39  1  0
 36 40  1  0
 34 41  1  0
 41 42  1  0
 42 43  1  0
 43 44  2  0
 44 45  1  0
 45 46  1  0
 46 47  2  0
 47 48  1  0
 48 49  2  0
 49 50  1  0
 50 51  2  0
 30 52  1  6
 52 53  2  0
 52 54  1  0
 54 55  1  0
  5  1  1  0
 16  5  1  0
 44 30  1  0
 51 46  1  0
 21  1  1  0
 40 32  1  0
 47 43  1  0
 26  2  1  0
 13  6  1  0
M  END
$$$$
