
     RDKit          3D

 36 40  0  0  0  0  0  0  0  0999 V2000
  102.3394  164.6400  161.3725 C   0  0  1  0  0  0  0  0  0  0  0  0
  103.7105  164.1333  161.7171 C   0  0  0  0  0  0  0  0  0  0  0  0
  104.7191  165.0723  161.1683 C   0  0  0  0  0  0  0  0  0  0  0  0
  104.4677  166.1302  160.4225 C   0  0  0  0  0  0  0  0  0  0  0  0
  105.6126  166.9565  159.9580 C   0  0  2  0  0  0  0  0  0  0  0  0
  106.7488  166.9198  160.9267 C   0  0  1  0  0  0  0  0  0  0  0  0
  107.7703  165.8549  160.4955 C   0  0  0  0  0  0  0  0  0  0  0  0
  107.5325  168.2024  161.0441 C   0  0  2  0  0  0  0  0  0  0  0  0
  108.3465  168.0450  162.3482 C   0  0  0  0  0  0  0  0  0  0  0  0
  106.6889  169.4129  161.2077 C   0  0  0  0  0  0  0  0  0  0  0  0
  105.2994  169.3242  160.6409 C   0  0  0  0  0  0  0  0  0  0  0  0
  105.2531  168.3332  159.5133 C   0  0  2  0  0  0  0  0  0  0  0  0
  103.9272  168.4123  158.7711 C   0  0  0  0  0  0  0  0  0  0  0  0
  103.1792  167.1348  158.6815 C   0  0  0  0  0  0  0  0  0  0  0  0
  103.0592  166.4940  160.0303 C   0  0  2  0  0  0  0  0  0  0  0  0
  102.3727  167.4154  160.9648 C   0  0  0  0  0  0  0  0  0  0  0  0
  102.3365  165.1210  159.9699 C   0  0  1  0  0  0  0  0  0  0  0  0
  103.1849  164.2987  159.0280 C   0  0  0  0  0  0  0  0  0  0  0  0
  101.0088  165.3567  159.3610 C   0  0  0  0  0  0  0  0  0  0  0  0
  100.0242  164.2418  159.6656 C   0  0  1  0  0  0  0  0  0  0  0  0
  100.4990  163.1116  159.0303 O   0  0  0  0  0  0  0  0  0  0  0  0
   99.9536  164.1452  161.1692 C   0  0  1  0  0  0  0  0  0  0  0  0
   98.7113  163.5331  161.6828 C   0  0  2  0  0  0  0  0  0  0  0  0
   98.3917  162.1800  161.0752 C   0  0  0  0  0  0  0  0  0  0  0  0
   97.5421  164.4258  161.2938 C   0  0  0  0  0  0  0  0  0  0  0  0
   97.0650  165.1500  162.3553 O   0  0  0  0  0  0  0  0  0  0  0  0
   98.6684  163.3644  163.1612 C   0  0  1  0  0  0  0  0  0  0  0  0
   97.7497  162.3456  163.4958 O   0  0  0  0  0  0  0  0  0  0  0  0
   99.9651  163.0673  163.8320 C   0  0  2  0  0  0  0  0  0  0  0  0
   99.8212  163.4470  165.1884 O   0  0  0  0  0  0  0  0  0  0  0  0
  101.1008  163.8498  163.2915 C   0  0  0  0  0  0  0  0  0  0  0  0
  101.2493  163.6809  161.7677 C   0  0  2  0  0  0  0  0  0  0  0  0
  101.5650  162.2489  161.5648 C   0  0  0  0  0  0  0  0  0  0  0  0
  106.2625  168.7652  158.5043 C   0  0  0  0  0  0  0  0  0  0  0  0
  106.6541  167.8526  157.5495 O   0  0  0  0  0  0  0  0  0  0  0  0
  106.7314  169.9031  158.5246 O   0  0  0  0  0  0  0  0  0  0  0  0
  1  2  1  6
  2  3  1  0
  3  4  2  0
  5  4  1  1
  5  6  1  0
  6  7  1  6
  6  8  1  0
  8  9  1  1
  8 10  1  0
 10 11  1  0
 11 12  1  0
 12 13  1  0
 13 14  1  0
 14 15  1  0
 15 16  1  1
 15 17  1  0
 17 18  1  6
 17 19  1  0
 19 20  1  0
 20 21  1  6
 22 20  1  6
 22 23  1  0
 23 24  1  6
 23 25  1  0
 25 26  1  0
 23 27  1  0
 27 28  1  6
 27 29  1  0
 29 30  1  1
 29 31  1  0
 31 32  1  0
 32 33  1  1
 12 34  1  6
 34 35  1  0
 34 36  2  0
 17  1  1  0
 32 22  1  0
 32  1  1  0
 15  4  1  0
 12  5  1  0
M  END
$$$$
