
     RDKit          3D

 36 40  0  0  0  0  0  0  0  0999 V2000
  163.1429  148.1528  126.2408 C   0  0  1  0  0  0  0  0  0  0  0  0
  162.8896  149.3478  125.3672 C   0  0  0  0  0  0  0  0  0  0  0  0
  163.6582  150.4999  125.8984 C   0  0  0  0  0  0  0  0  0  0  0  0
  164.3755  150.5086  127.0046 C   0  0  0  0  0  0  0  0  0  0  0  0
  165.0777  151.7631  127.3826 C   0  0  2  0  0  0  0  0  0  0  0  0
  165.4601  152.5650  126.1819 C   0  0  1  0  0  0  0  0  0  0  0  0
  164.3925  153.6361  125.9060 C   0  0  0  0  0  0  0  0  0  0  0  0
  166.7610  153.3173  126.3017 C   0  0  2  0  0  0  0  0  0  0  0  0
  167.1205  153.7096  124.8508 C   0  0  0  0  0  0  0  0  0  0  0  0
  167.8871  152.4986  126.8169 C   0  0  0  0  0  0  0  0  0  0  0  0
  167.5054  151.3336  127.6867 C   0  0  0  0  0  0  0  0  0  0  0  0
  166.1884  151.5898  128.3617 C   0  0  2  0  0  0  0  0  0  0  0  0
  165.9086  150.5417  129.4286 C   0  0  0  0  0  0  0  0  0  0  0  0
  164.6247  149.8154  129.2757 C   0  0  0  0  0  0  0  0  0  0  0  0
  164.4758  149.2876  127.8816 C   0  0  2  0  0  0  0  0  0  0  0  0
  165.6063  148.3853  127.5628 C   0  0  0  0  0  0  0  0  0  0  0  0
  163.1143  148.5742  127.6622 C   0  0  1  0  0  0  0  0  0  0  0  0
  162.0865  149.6363  127.9761 C   0  0  0  0  0  0  0  0  0  0  0  0
  163.0267  147.4900  128.6651 C   0  0  0  0  0  0  0  0  0  0  0  0
  162.0117  146.4271  128.2839 C   0  0  1  0  0  0  0  0  0  0  0  0
  160.7719  147.0334  128.3227 O   0  0  0  0  0  0  0  0  0  0  0  0
  162.4294  145.9173  126.9272 C   0  0  1  0  0  0  0  0  0  0  0  0
  161.9374  144.5616  126.6077 C   0  0  2  0  0  0  0  0  0  0  0  0
  160.4380  144.3941  126.7695 C   0  0  0  0  0  0  0  0  0  0  0  0
  162.5523  143.5840  127.5982 C   0  0  0  0  0  0  0  0  0  0  0  0
  163.9182  143.5303  127.4961 O   0  0  0  0  0  0  0  0  0  0  0  0
  162.2809  144.0836  125.2405 C   0  0  1  0  0  0  0  0  0  0  0  0
  161.3712  143.0777  124.8472 O   0  0  0  0  0  0  0  0  0  0  0  0
  162.3298  145.1182  124.1696 C   0  0  2  0  0  0  0  0  0  0  0  0
  163.1378  144.5954  123.1311 O   0  0  0  0  0  0  0  0  0  0  0  0
  162.9642  146.3848  124.6027 C   0  0  0  0  0  0  0  0  0  0  0  0
  162.2968  146.9672  125.8629 C   0  0  2  0  0  0  0  0  0  0  0  0
  160.9099  147.2862  125.4554 C   0  0  0  0  0  0  0  0  0  0  0  0
  166.3249  152.8623  129.1270 C   0  0  0  0  0  0  0  0  0  0  0  0
  165.2998  153.7791  129.0457 O   0  0  0  0  0  0  0  0  0  0  0  0
  167.3237  153.0861  129.8107 O   0  0  0  0  0  0  0  0  0  0  0  0
  1  2  1  6
  2  3  1  0
  3  4  2  0
  5  4  1  6
  5  6  1  0
  6  7  1  1
  6  8  1  0
  8  9  1  6
  8 10  1  0
 10 11  1  0
 11 12  1  0
 12 13  1  0
 13 14  1  0
 14 15  1  0
 15 16  1  6
 15 17  1  0
 17 18  1  6
 17 19  1  0
 19 20  1  0
 20 21  1  6
 22 20  1  1
 22 23  1  0
 23 24  1  6
 23 25  1  0
 25 26  1  0
 23 27  1  0
 27 28  1  6
 27 29  1  0
 29 30  1  6
 29 31  1  0
 31 32  1  0
 32 33  1  6
 12 34  1  1
 34 35  1  0
 34 36  2  0
 17  1  1  0
 32 22  1  0
 32  1  1  0
 15  4  1  0
 12  5  1  0
M  END
$$$$
