
     RDKit          3D

 36 40  0  0  0  0  0  0  0  0999 V2000
  170.7098  163.4299  110.7262 C   0  0  1  0  0  0  0  0  0  0  0  0
  170.8014  162.4972  111.8997 C   0  0  0  0  0  0  0  0  0  0  0  0
  172.1249  162.6714  112.5466 C   0  0  0  0  0  0  0  0  0  0  0  0
  173.1008  163.4471  112.1174 C   0  0  0  0  0  0  0  0  0  0  0  0
  174.3648  163.4913  112.8983 C   0  0  2  0  0  0  0  0  0  0  0  0
  174.1242  163.2489  114.3523 C   0  0  1  0  0  0  0  0  0  0  0  0
  174.3599  161.7660  114.6819 C   0  0  0  0  0  0  0  0  0  0  0  0
  175.0249  164.0154  115.2873 C   0  0  2  0  0  0  0  0  0  0  0  0
  174.3323  163.9171  116.6652 C   0  0  0  0  0  0  0  0  0  0  0  0
  175.1398  165.4602  114.9663 C   0  0  0  0  0  0  0  0  0  0  0  0
  174.9068  165.8321  113.5286 C   0  0  0  0  0  0  0  0  0  0  0  0
  175.2290  164.6752  112.6267 C   0  0  2  0  0  0  0  0  0  0  0  0
  175.2388  165.1067  111.1676 C   0  0  0  0  0  0  0  0  0  0  0  0
  174.3356  164.3372  110.2780 C   0  0  0  0  0  0  0  0  0  0  0  0
  172.9565  164.2616  110.8581 C   0  0  2  0  0  0  0  0  0  0  0  0
  172.4211  165.6277  111.0601 C   0  0  0  0  0  0  0  0  0  0  0  0
  171.9948  163.4093  109.9865 C   0  0  1  0  0  0  0  0  0  0  0  0
  172.6566  162.0523  109.9261 C   0  0  0  0  0  0  0  0  0  0  0  0
  171.9830  164.0140  108.6362 C   0  0  0  0  0  0  0  0  0  0  0  0
  170.7638  163.6067  107.8283 C   0  0  1  0  0  0  0  0  0  0  0  0
  170.8784  162.2503  107.5975 O   0  0  0  0  0  0  0  0  0  0  0  0
  169.5643  164.0145  108.6468 C   0  0  1  0  0  0  0  0  0  0  0  0
  168.3284  164.2090  107.8615 C   0  0  2  0  0  0  0  0  0  0  0  0
  167.9614  163.0273  106.9835 C   0  0  0  0  0  0  0  0  0  0  0  0
  168.5523  165.3631  106.8956 C   0  0  0  0  0  0  0  0  0  0  0  0
  167.3944  165.7538  106.2747 O   0  0  0  0  0  0  0  0  0  0  0  0
  167.1236  164.5360  108.6724 C   0  0  1  0  0  0  0  0  0  0  0  0
  165.9592  164.1894  107.9527 O   0  0  0  0  0  0  0  0  0  0  0  0
  167.0447  163.9123  110.0231 C   0  0  2  0  0  0  0  0  0  0  0  0
  166.1616  164.7089  110.7914 O   0  0  0  0  0  0  0  0  0  0  0  0
  168.3392  163.9005  110.7430 C   0  0  0  0  0  0  0  0  0  0  0  0
  169.4548  163.2284  109.9207 C   0  0  2  0  0  0  0  0  0  0  0  0
  169.0260  161.8204  109.7627 C   0  0  0  0  0  0  0  0  0  0  0  0
  176.6411  164.2821  112.9005 C   0  0  0  0  0  0  0  0  0  0  0  0
  177.6422  165.1254  112.4709 O   0  0  0  0  0  0  0  0  0  0  0  0
  176.9036  163.2354  113.4926 O   0  0  0  0  0  0  0  0  0  0  0  0
  1  2  1  1
  2  3  1  0
  3  4  2  0
  5  4  1  6
  5  6  1  0
  6  7  1  6
  6  8  1  0
  8  9  1  1
  8 10  1  0
 10 11  1  0
 11 12  1  0
 12 13  1  0
 13 14  1  0
 14 15  1  0
 15 16  1  1
 15 17  1  0
 17 18  1  6
 17 19  1  0
 19 20  1  0
 20 21  1  1
 22 20  1  6
 22 23  1  0
 23 24  1  6
 23 25  1  0
 25 26  1  0
 23 27  1  0
 27 28  1  6
 27 29  1  0
 29 30  1  1
 29 31  1  0
 31 32  1  0
 32 33  1  6
 12 34  1  1
 34 35  1  0
 34 36  2  0
 17  1  1  0
 32 22  1  0
 32  1  1  0
 15  4  1  0
 12  5  1  0
M  END
$$$$
