
     RDKit          3D

 36 40  0  0  0  0  0  0  0  0999 V2000
  152.1346  164.0485  120.0682 C   0  0  1  0  0  0  0  0  0  0  0  0
  151.5060  162.8060  119.5057 C   0  0  0  0  0  0  0  0  0  0  0  0
  151.0591  161.9459  120.6286 C   0  0  0  0  0  0  0  0  0  0  0  0
  151.2573  162.1808  121.9107 C   0  0  0  0  0  0  0  0  0  0  0  0
  150.7380  161.1988  122.8984 C   0  0  2  0  0  0  0  0  0  0  0  0
  149.5119  160.5082  122.3979 C   0  0  1  0  0  0  0  0  0  0  0  0
  149.8928  159.1637  121.7573 C   0  0  0  0  0  0  0  0  0  0  0  0
  148.4890  160.1736  123.4537 C   0  0  2  0  0  0  0  0  0  0  0  0
  147.1990  159.8603  122.6625 C   0  0  0  0  0  0  0  0  0  0  0  0
  148.1706  161.3011  124.3652 C   0  0  0  0  0  0  0  0  0  0  0  0
  149.2537  162.3290  124.5385 C   0  0  0  0  0  0  0  0  0  0  0  0
  150.6033  161.7189  124.2889 C   0  0  2  0  0  0  0  0  0  0  0  0
  151.7171  162.6709  124.6992 C   0  0  0  0  0  0  0  0  0  0  0  0
  152.7006  162.9845  123.6345 C   0  0  0  0  0  0  0  0  0  0  0  0
  152.0050  163.4035  122.3756 C   0  0  2  0  0  0  0  0  0  0  0  0
  151.1553  164.5871  122.6414 C   0  0  0  0  0  0  0  0  0  0  0  0
  152.9990  163.6802  121.2153 C   0  0  1  0  0  0  0  0  0  0  0  0
  153.7383  162.3737  121.0435 C   0  0  0  0  0  0  0  0  0  0  0  0
  153.9383  164.7209  121.6884 C   0  0  0  0  0  0  0  0  0  0  0  0
  154.6447  165.4281  120.5456 C   0  0  1  0  0  0  0  0  0  0  0  0
  155.4511  164.4869  119.9373 O   0  0  0  0  0  0  0  0  0  0  0  0
  153.5568  165.9969  119.6693 C   0  0  1  0  0  0  0  0  0  0  0  0
  153.9816  167.1389  118.8342 C   0  0  2  0  0  0  0  0  0  0  0  0
  155.2146  166.8650  117.9934 C   0  0  0  0  0  0  0  0  0  0  0  0
  154.3788  168.2830  119.7552 C   0  0  0  0  0  0  0  0  0  0  0  0
  153.2908  168.9098  120.3050 O   0  0  0  0  0  0  0  0  0  0  0  0
  152.9344  167.6552  117.9108 C   0  0  1  0  0  0  0  0  0  0  0  0
  153.5446  168.3384  116.8362 O   0  0  0  0  0  0  0  0  0  0  0  0
  151.9890  166.6485  117.3519 C   0  0  2  0  0  0  0  0  0  0  0  0
  150.8271  167.3535  116.9548 O   0  0  0  0  0  0  0  0  0  0  0  0
  151.5527  165.6367  118.3419 C   0  0  0  0  0  0  0  0  0  0  0  0
  152.7449  164.9226  119.0062 C   0  0  2  0  0  0  0  0  0  0  0  0
  153.4252  164.1995  117.9082 C   0  0  0  0  0  0  0  0  0  0  0  0
  150.7459  160.5658  125.2235 C   0  0  0  0  0  0  0  0  0  0  0  0
  150.6269  160.8093  126.5742 O   0  0  0  0  0  0  0  0  0  0  0  0
  150.9634  159.4306  124.8001 O   0  0  0  0  0  0  0  0  0  0  0  0
  1  2  1  6
  2  3  1  0
  3  4  2  0
  5  4  1  6
  5  6  1  0
  6  7  1  1
  6  8  1  0
  8  9  1  6
  8 10  1  0
 10 11  1  0
 11 12  1  0
 12 13  1  0
 13 14  1  0
 14 15  1  0
 15 16  1  1
 15 17  1  0
 17 18  1  6
 17 19  1  0
 19 20  1  0
 20 21  1  6
 22 20  1  6
 22 23  1  0
 23 24  1  6
 23 25  1  0
 25 26  1  0
 23 27  1  0
 27 28  1  6
 27 29  1  0
 29 30  1  1
 29 31  1  0
 31 32  1  0
 32 33  1  6
 12 34  1  1
 34 35  1  0
 34 36  2  0
 17  1  1  0
 32 22  1  0
 32  1  1  0
 15  4  1  0
 12  5  1  0
M  END
$$$$
