
     RDKit          3D

 36 40  0  0  0  0  0  0  0  0999 V2000
  170.5841  146.1318  126.4001 C   0  0  1  0  0  0  0  0  0  0  0  0
  170.6687  146.4028  127.8748 C   0  0  0  0  0  0  0  0  0  0  0  0
  170.0453  147.7192  128.1555 C   0  0  0  0  0  0  0  0  0  0  0  0
  169.5738  148.5605  127.2564 C   0  0  0  0  0  0  0  0  0  0  0  0
  168.9852  149.8418  127.7267 C   0  0  2  0  0  0  0  0  0  0  0  0
  168.3741  149.7039  129.0825 C   0  0  1  0  0  0  0  0  0  0  0  0
  169.3774  150.1526  130.1573 C   0  0  0  0  0  0  0  0  0  0  0  0
  167.1382  150.5352  129.3159 C   0  0  2  0  0  0  0  0  0  0  0  0
  166.4911  149.9269  130.5805 C   0  0  0  0  0  0  0  0  0  0  0  0
  166.1313  150.4390  128.2294 C   0  0  0  0  0  0  0  0  0  0  0  0
  166.6674  150.0915  126.8687 C   0  0  0  0  0  0  0  0  0  0  0  0
  168.0998  150.5248  126.7408 C   0  0  2  0  0  0  0  0  0  0  0  0
  168.5789  150.4085  125.3013 C   0  0  0  0  0  0  0  0  0  0  0  0
  169.7915  149.5772  125.1071 C   0  0  0  0  0  0  0  0  0  0  0  0
  169.6391  148.2493  125.7837 C   0  0  2  0  0  0  0  0  0  0  0  0
  168.4532  147.5443  125.2449 C   0  0  0  0  0  0  0  0  0  0  0  0
  170.9140  147.3720  125.6575 C   0  0  1  0  0  0  0  0  0  0  0  0
  172.0010  148.2075  126.2927 C   0  0  0  0  0  0  0  0  0  0  0  0
  171.1914  147.2162  124.2125 C   0  0  0  0  0  0  0  0  0  0  0  0
  172.0883  146.0269  123.9185 C   0  0  1  0  0  0  0  0  0  0  0  0
  173.3183  146.3128  124.4767 O   0  0  0  0  0  0  0  0  0  0  0  0
  171.3898  144.8226  124.4988 C   0  0  1  0  0  0  0  0  0  0  0  0
  171.7836  143.5367  123.8879 C   0  0  2  0  0  0  0  0  0  0  0  0
  173.2810  143.2923  123.8727 C   0  0  0  0  0  0  0  0  0  0  0  0
  171.3728  143.5577  122.4230 C   0  0  0  0  0  0  0  0  0  0  0  0
  171.9951  142.5775  121.6943 O   0  0  0  0  0  0  0  0  0  0  0  0
  171.1559  142.3377  124.5079 C   0  0  1  0  0  0  0  0  0  0  0  0
  171.9483  141.1986  124.2459 O   0  0  0  0  0  0  0  0  0  0  0  0
  170.9015  142.4065  125.9742 C   0  0  2  0  0  0  0  0  0  0  0  0
  169.8872  141.4605  126.2591 O   0  0  0  0  0  0  0  0  0  0  0  0
  170.3908  143.7227  126.4224 C   0  0  0  0  0  0  0  0  0  0  0  0
  171.3145  144.8795  125.9968 C   0  0  2  0  0  0  0  0  0  0  0  0
  172.5912  144.6378  126.7060 C   0  0  0  0  0  0  0  0  0  0  0  0
  168.1451  151.9881  127.0235 C   0  0  0  0  0  0  0  0  0  0  0  0
  169.3595  152.6301  126.9176 O   0  0  0  0  0  0  0  0  0  0  0  0
  167.1277  152.6035  127.3419 O   0  0  0  0  0  0  0  0  0  0  0  0
  1  2  1  1
  2  3  1  0
  3  4  2  0
  5  4  1  6
  5  6  1  0
  6  7  1  1
  6  8  1  0
  8  9  1  1
  8 10  1  0
 10 11  1  0
 11 12  1  0
 12 13  1  0
 13 14  1  0
 14 15  1  0
 15 16  1  6
 15 17  1  0
 17 18  1  1
 17 19  1  0
 19 20  1  0
 20 21  1  1
 22 20  1  1
 22 23  1  0
 23 24  1  6
 23 25  1  0
 25 26  1  0
 23 27  1  0
 27 28  1  1
 27 29  1  0
 29 30  1  6
 29 31  1  0
 31 32  1  0
 32 33  1  1
 12 34  1  1
 34 35  1  0
 34 36  2  0
 17  1  1  0
 32 22  1  0
 32  1  1  0
 15  4  1  0
 12  5  1  0
M  END
$$$$
