
     RDKit          3D

 36 40  0  0  0  0  0  0  0  0999 V2000
  115.2588  146.6931  158.9115 C   0  0  1  0  0  0  0  0  0  0  0  0
  113.8294  146.6529  158.4524 C   0  0  0  0  0  0  0  0  0  0  0  0
  113.7976  146.7887  156.9756 C   0  0  0  0  0  0  0  0  0  0  0  0
  114.8384  147.0011  156.1947 C   0  0  0  0  0  0  0  0  0  0  0  0
  114.6123  147.1143  154.7299 C   0  0  2  0  0  0  0  0  0  0  0  0
  113.4407  146.3003  154.2876 C   0  0  1  0  0  0  0  0  0  0  0  0
  112.1858  147.1852  154.2153 C   0  0  0  0  0  0  0  0  0  0  0  0
  113.5720  145.6785  152.9205 C   0  0  2  0  0  0  0  0  0  0  0  0
  112.4662  144.6000  152.8739 C   0  0  0  0  0  0  0  0  0  0  0  0
  114.8626  144.9804  152.6958 C   0  0  0  0  0  0  0  0  0  0  0  0
  116.0250  145.4745  153.5108 C   0  0  0  0  0  0  0  0  0  0  0  0
  115.8277  146.9143  153.8902 C   0  0  2  0  0  0  0  0  0  0  0  0
  117.0956  147.4980  154.4960 C   0  0  0  0  0  0  0  0  0  0  0  0
  116.9321  148.0938  155.8442 C   0  0  0  0  0  0  0  0  0  0  0  0
  116.2266  147.1438  156.7628 C   0  0  2  0  0  0  0  0  0  0  0  0
  116.9906  145.8787  156.8602 C   0  0  0  0  0  0  0  0  0  0  0  0
  115.9790  147.7550  158.1685 C   0  0  1  0  0  0  0  0  0  0  0  0
  115.1545  148.9910  157.8932 C   0  0  0  0  0  0  0  0  0  0  0  0
  117.2988  148.1514  158.7071 C   0  0  0  0  0  0  0  0  0  0  0  0
  117.2852  148.3122  160.2167 C   0  0  1  0  0  0  0  0  0  0  0  0
  116.4638  149.3874  160.4916 O   0  0  0  0  0  0  0  0  0  0  0  0
  116.8143  146.9920  160.7740 C   0  0  1  0  0  0  0  0  0  0  0  0
  117.2238  146.7392  162.1705 C   0  0  2  0  0  0  0  0  0  0  0  0
  116.8565  147.8526  163.1336 C   0  0  0  0  0  0  0  0  0  0  0  0
  118.7427  146.6629  162.2170 C   0  0  0  0  0  0  0  0  0  0  0  0
  119.2111  145.4169  161.8900 O   0  0  0  0  0  0  0  0  0  0  0  0
  116.6976  145.4736  162.7514 C   0  0  1  0  0  0  0  0  0  0  0  0
  116.6819  145.5691  164.1602 O   0  0  0  0  0  0  0  0  0  0  0  0
  115.3457  145.0463  162.2939 C   0  0  2  0  0  0  0  0  0  0  0  0
  115.2550  143.6530  162.5287 O   0  0  0  0  0  0  0  0  0  0  0  0
  115.1243  145.2465  160.8430 C   0  0  0  0  0  0  0  0  0  0  0  0
  115.3873  146.7013  160.4108 C   0  0  2  0  0  0  0  0  0  0  0  0
  114.3734  147.5082  161.1263 C   0  0  0  0  0  0  0  0  0  0  0  0
  115.6404  147.6822  152.6258 C   0  0  0  0  0  0  0  0  0  0  0  0
  116.2409  147.2023  151.4825 O   0  0  0  0  0  0  0  0  0  0  0  0
  114.9692  148.7138  152.6048 O   0  0  0  0  0  0  0  0  0  0  0  0
  1  2  1  1
  2  3  1  0
  3  4  2  0
  5  4  1  1
  5  6  1  0
  6  7  1  6
  6  8  1  0
  8  9  1  1
  8 10  1  0
 10 11  1  0
 11 12  1  0
 12 13  1  0
 13 14  1  0
 14 15  1  0
 15 16  1  1
 15 17  1  0
 17 18  1  6
 17 19  1  0
 19 20  1  0
 20 21  1  6
 22 20  1  1
 22 23  1  0
 23 24  1  1
 23 25  1  0
 25 26  1  0
 23 27  1  0
 27 28  1  1
 27 29  1  0
 29 30  1  6
 29 31  1  0
 31 32  1  0
 32 33  1  1
 12 34  1  6
 34 35  1  0
 34 36  2  0
 17  1  1  0
 32 22  1  0
 32  1  1  0
 15  4  1  0
 12  5  1  0
M  END
$$$$
