
     RDKit          3D

 36 40  0  0  0  0  0  0  0  0999 V2000
  168.4600  148.9087  125.7771 C   0  0  1  0  0  0  0  0  0  0  0  0
  167.5892  149.6932  124.8382 C   0  0  0  0  0  0  0  0  0  0  0  0
  166.7157  150.5904  125.6334 C   0  0  0  0  0  0  0  0  0  0  0  0
  166.6432  150.6343  126.9491 C   0  0  0  0  0  0  0  0  0  0  0  0
  165.7020  151.6004  127.5739 C   0  0  2  0  0  0  0  0  0  0  0  0
  165.5169  152.8169  126.7274 C   0  0  1  0  0  0  0  0  0  0  0  0
  164.2598  152.6625  125.8563 C   0  0  0  0  0  0  0  0  0  0  0  0
  165.3215  154.1035  127.4886 C   0  0  2  0  0  0  0  0  0  0  0  0
  165.5615  155.2162  126.4435 C   0  0  0  0  0  0  0  0  0  0  0  0
  166.3075  154.3170  128.5775 C   0  0  0  0  0  0  0  0  0  0  0  0
  166.9108  153.0731  129.1678 C   0  0  0  0  0  0  0  0  0  0  0  0
  165.9773  151.9076  129.0064 C   0  0  2  0  0  0  0  0  0  0  0  0
  166.4572  150.7083  129.8105 C   0  0  0  0  0  0  0  0  0  0  0  0
  166.6467  149.4621  129.0292 C   0  0  0  0  0  0  0  0  0  0  0  0
  167.4772  149.7210  127.8095 C   0  0  2  0  0  0  0  0  0  0  0  0
  168.7935  150.2722  128.2060 C   0  0  0  0  0  0  0  0  0  0  0  0
  167.6462  148.4528  126.9297 C   0  0  1  0  0  0  0  0  0  0  0  0
  166.2312  148.0584  126.5755 C   0  0  0  0  0  0  0  0  0  0  0  0
  168.2505  147.4087  127.7861 C   0  0  0  0  0  0  0  0  0  0  0  0
  168.9062  146.3030  126.9783 C   0  0  1  0  0  0  0  0  0  0  0  0
  167.8920  145.6518  126.3048 O   0  0  0  0  0  0  0  0  0  0  0  0
  169.9261  146.9781  126.0957 C   0  0  1  0  0  0  0  0  0  0  0  0
  171.0179  146.0939  125.6395 C   0  0  2  0  0  0  0  0  0  0  0  0
  170.5414  144.8165  124.9734 C   0  0  0  0  0  0  0  0  0  0  0  0
  171.8016  145.6334  126.8597 C   0  0  0  0  0  0  0  0  0  0  0  0
  170.9828  145.2735  127.8984 O   0  0  0  0  0  0  0  0  0  0  0  0
  171.9849  146.7337  124.7061 C   0  0  1  0  0  0  0  0  0  0  0  0
  172.6348  145.7399  123.9418 O   0  0  0  0  0  0  0  0  0  0  0  0
  171.4298  147.7553  123.7746 C   0  0  2  0  0  0  0  0  0  0  0  0
  172.5127  148.5733  123.3709 O   0  0  0  0  0  0  0  0  0  0  0  0
  170.4352  148.6517  124.4082 C   0  0  0  0  0  0  0  0  0  0  0  0
  169.2863  147.8683  125.0705 C   0  0  2  0  0  0  0  0  0  0  0  0
  168.6031  147.1679  123.9596 C   0  0  0  0  0  0  0  0  0  0  0  0
  164.6856  152.2846  129.6489 C   0  0  0  0  0  0  0  0  0  0  0  0
  164.7236  152.7908  130.9296 O   0  0  0  0  0  0  0  0  0  0  0  0
  163.6177  152.1473  129.0523 O   0  0  0  0  0  0  0  0  0  0  0  0
  1  2  1  6
  2  3  1  0
  3  4  2  0
  5  4  1  6
  5  6  1  0
  6  7  1  1
  6  8  1  0
  8  9  1  6
  8 10  1  0
 10 11  1  0
 11 12  1  0
 12 13  1  0
 13 14  1  0
 14 15  1  0
 15 16  1  1
 15 17  1  0
 17 18  1  6
 17 19  1  0
 19 20  1  0
 20 21  1  6
 22 20  1  6
 22 23  1  0
 23 24  1  6
 23 25  1  0
 25 26  1  0
 23 27  1  0
 27 28  1  6
 27 29  1  0
 29 30  1  1
 29 31  1  0
 31 32  1  0
 32 33  1  6
 12 34  1  1
 34 35  1  0
 34 36  2  0
 17  1  1  0
 32 22  1  0
 32  1  1  0
 15  4  1  0
 12  5  1  0
M  END
$$$$
