
     RDKit          3D

 36 40  0  0  0  0  0  0  0  0999 V2000
  172.7941  147.0583  119.3590 C   0  0  1  0  0  0  0  0  0  0  0  0
  173.7626  148.0747  118.8255 C   0  0  0  0  0  0  0  0  0  0  0  0
  175.1041  147.8028  119.3971 C   0  0  0  0  0  0  0  0  0  0  0  0
  175.3912  146.8811  120.2951 C   0  0  0  0  0  0  0  0  0  0  0  0
  176.7989  146.7568  120.7561 C   0  0  2  0  0  0  0  0  0  0  0  0
  177.7661  147.1552  119.6900 C   0  0  1  0  0  0  0  0  0  0  0  0
  178.1810  148.6230  119.8814 C   0  0  0  0  0  0  0  0  0  0  0  0
  179.0552  146.3737  119.6698 C   0  0  2  0  0  0  0  0  0  0  0  0
  179.6742  146.6768  118.2867 C   0  0  0  0  0  0  0  0  0  0  0  0
  178.8711  144.9027  119.7451 C   0  0  0  0  0  0  0  0  0  0  0  0
  177.6131  144.4339  120.4215 C   0  0  0  0  0  0  0  0  0  0  0  0
  177.1330  145.4589  121.4088 C   0  0  2  0  0  0  0  0  0  0  0  0
  176.0132  144.9005  122.2744 C   0  0  0  0  0  0  0  0  0  0  0  0
  174.7574  145.6893  122.2645 C   0  0  0  0  0  0  0  0  0  0  0  0
  174.3240  145.9802  120.8603 C   0  0  2  0  0  0  0  0  0  0  0  0
  174.1278  144.7112  120.1222 C   0  0  0  0  0  0  0  0  0  0  0  0
  173.0453  146.8595  120.8067 C   0  0  1  0  0  0  0  0  0  0  0  0
  173.4312  148.1171  121.5501 C   0  0  0  0  0  0  0  0  0  0  0  0
  171.9942  146.1422  121.5615 C   0  0  0  0  0  0  0  0  0  0  0  0
  170.5970  146.6177  121.2057 C   0  0  1  0  0  0  0  0  0  0  0  0
  170.5023  147.9247  121.6405 O   0  0  0  0  0  0  0  0  0  0  0  0
  170.4581  146.4306  119.7155 C   0  0  1  0  0  0  0  0  0  0  0  0
  169.0634  146.3151  119.2431 C   0  0  2  0  0  0  0  0  0  0  0  0
  168.1618  147.4488  119.6950 C   0  0  0  0  0  0  0  0  0  0  0  0
  168.4545  145.0608  119.8523 C   0  0  0  0  0  0  0  0  0  0  0  0
  167.0864  145.1220  119.9102 O   0  0  0  0  0  0  0  0  0  0  0  0
  168.9159  146.2078  117.7658 C   0  0  1  0  0  0  0  0  0  0  0  0
  167.6210  146.6248  117.3869 O   0  0  0  0  0  0  0  0  0  0  0  0
  169.9096  146.9548  116.9447 C   0  0  2  0  0  0  0  0  0  0  0  0
  169.9314  146.3410  115.6690 O   0  0  0  0  0  0  0  0  0  0  0  0
  171.2902  146.8767  117.4757 C   0  0  0  0  0  0  0  0  0  0  0  0
  171.3744  147.3349  118.9439 C   0  0  2  0  0  0  0  0  0  0  0  0
  170.9892  148.7641  118.9272 C   0  0  0  0  0  0  0  0  0  0  0  0
  178.2481  145.7040  122.3679 C   0  0  0  0  0  0  0  0  0  0  0  0
  178.4687  146.9979  122.7864 O   0  0  0  0  0  0  0  0  0  0  0  0
  178.9501  144.7776  122.7732 O   0  0  0  0  0  0  0  0  0  0  0  0
  1  2  1  1
  2  3  1  0
  3  4  2  0
  5  4  1  6
  5  6  1  0
  6  7  1  1
  6  8  1  0
  8  9  1  6
  8 10  1  0
 10 11  1  0
 11 12  1  0
 12 13  1  0
 13 14  1  0
 14 15  1  0
 15 16  1  6
 15 17  1  0
 17 18  1  1
 17 19  1  0
 19 20  1  0
 20 21  1  6
 22 20  1  1
 22 23  1  0
 23 24  1  1
 23 25  1  0
 25 26  1  0
 23 27  1  0
 27 28  1  1
 27 29  1  0
 29 30  1  6
 29 31  1  0
 31 32  1  0
 32 33  1  6
 12 34  1  1
 34 35  1  0
 34 36  2  0
 17  1  1  0
 32 22  1  0
 32  1  1  0
 15  4  1  0
 12  5  1  0
M  END
$$$$
