
     RDKit          3D

 36 40  0  0  0  0  0  0  0  0999 V2000
  170.6169  164.2716  110.3918 C   0  0  1  0  0  0  0  0  0  0  0  0
  170.4014  163.0083  111.1748 C   0  0  0  0  0  0  0  0  0  0  0  0
  171.6423  162.6924  111.9236 C   0  0  0  0  0  0  0  0  0  0  0  0
  172.7806  163.3535  111.8505 C   0  0  0  0  0  0  0  0  0  0  0  0
  173.9246  162.8857  112.6763 C   0  0  2  0  0  0  0  0  0  0  0  0
  173.4642  162.2349  113.9392 C   0  0  1  0  0  0  0  0  0  0  0  0
  173.4047  160.7103  113.7511 C   0  0  0  0  0  0  0  0  0  0  0  0
  174.3541  162.4567  115.1358 C   0  0  2  0  0  0  0  0  0  0  0  0
  173.4854  162.0543  116.3488 C   0  0  0  0  0  0  0  0  0  0  0  0
  174.7488  163.8729  115.3408 C   0  0  0  0  0  0  0  0  0  0  0  0
  174.7659  164.7330  114.1082 C   0  0  0  0  0  0  0  0  0  0  0  0
  175.0021  163.8947  112.8846 C   0  0  2  0  0  0  0  0  0  0  0  0
  175.2692  164.7681  111.6676 C   0  0  0  0  0  0  0  0  0  0  0  0
  174.3705  164.5293  110.5123 C   0  0  0  0  0  0  0  0  0  0  0  0
  172.9358  164.5463  110.9431 C   0  0  2  0  0  0  0  0  0  0  0  0
  172.6151  165.8492  111.5700 C   0  0  0  0  0  0  0  0  0  0  0  0
  171.9637  164.2368  109.7725 C   0  0  1  0  0  0  0  0  0  0  0  0
  172.3915  162.8705  109.2892 C   0  0  0  0  0  0  0  0  0  0  0  0
  172.2250  165.2388  108.7159 C   0  0  0  0  0  0  0  0  0  0  0  0
  171.0675  165.3712  107.7423 C   0  0  1  0  0  0  0  0  0  0  0  0
  170.9820  164.1709  107.0654 O   0  0  0  0  0  0  0  0  0  0  0  0
  169.8589  165.7207  108.5742 C   0  0  1  0  0  0  0  0  0  0  0  0
  168.7828  166.4048  107.8285 C   0  0  2  0  0  0  0  0  0  0  0  0
  168.3380  165.6738  106.5755 C   0  0  0  0  0  0  0  0  0  0  0  0
  169.3175  167.7415  107.3361 C   0  0  0  0  0  0  0  0  0  0  0  0
  169.5233  168.6285  108.3606 O   0  0  0  0  0  0  0  0  0  0  0  0
  167.5566  166.6833  108.6251 C   0  0  1  0  0  0  0  0  0  0  0  0
  166.4516  166.8317  107.7585 O   0  0  0  0  0  0  0  0  0  0  0  0
  167.2036  165.6816  109.6699 C   0  0  2  0  0  0  0  0  0  0  0  0
  166.3757  166.3432  110.6089 O   0  0  0  0  0  0  0  0  0  0  0  0
  168.3757  165.1759  110.4212 C   0  0  0  0  0  0  0  0  0  0  0  0
  169.4586  164.6003  109.4892 C   0  0  2  0  0  0  0  0  0  0  0  0
  168.8239  163.4375  108.8286 C   0  0  0  0  0  0  0  0  0  0  0  0
  176.2821  163.1591  113.0939 C   0  0  0  0  0  0  0  0  0  0  0  0
  176.3932  161.8912  112.5665 O   0  0  0  0  0  0  0  0  0  0  0  0
  177.2112  163.6699  113.7192 O   0  0  0  0  0  0  0  0  0  0  0  0
  1  2  1  6
  2  3  1  0
  3  4  2  0
  5  4  1  1
  5  6  1  0
  6  7  1  6
  6  8  1  0
  8  9  1  1
  8 10  1  0
 10 11  1  0
 11 12  1  0
 12 13  1  0
 13 14  1  0
 14 15  1  0
 15 16  1  1
 15 17  1  0
 17 18  1  6
 17 19  1  0
 19 20  1  0
 20 21  1  1
 22 20  1  6
 22 23  1  0
 23 24  1  6
 23 25  1  0
 25 26  1  0
 23 27  1  0
 27 28  1  6
 27 29  1  0
 29 30  1  1
 29 31  1  0
 31 32  1  0
 32 33  1  6
 12 34  1  1
 34 35  1  0
 34 36  2  0
 17  1  1  0
 32 22  1  0
 32  1  1  0
 15  4  1  0
 12  5  1  0
M  END
$$$$
