
     RDKit          3D

 36 40  0  0  0  0  0  0  0  0999 V2000
  133.4016  163.7893  155.5835 C   0  0  1  0  0  0  0  0  0  0  0  0
  132.5990  165.0347  155.3382 C   0  0  0  0  0  0  0  0  0  0  0  0
  131.1755  164.6584  155.1581 C   0  0  0  0  0  0  0  0  0  0  0  0
  130.6971  163.4302  155.1262 C   0  0  0  0  0  0  0  0  0  0  0  0
  129.2350  163.2455  154.9316 C   0  0  2  0  0  0  0  0  0  0  0  0
  128.4545  164.3874  155.4952 C   0  0  1  0  0  0  0  0  0  0  0  0
  128.1386  165.4038  154.3860 C   0  0  0  0  0  0  0  0  0  0  0  0
  127.1203  164.0186  156.0926 C   0  0  2  0  0  0  0  0  0  0  0  0
  126.7182  165.2473  156.9392 C   0  0  0  0  0  0  0  0  0  0  0  0
  127.1723  162.8583  157.0171 C   0  0  0  0  0  0  0  0  0  0  0  0
  128.2863  161.8783  156.7759 C   0  0  0  0  0  0  0  0  0  0  0  0
  128.7122  161.9093  155.3359 C   0  0  2  0  0  0  0  0  0  0  0  0
  129.6573  160.7591  155.0212 C   0  0  0  0  0  0  0  0  0  0  0  0
  130.9631  161.1581  154.4426 C   0  0  0  0  0  0  0  0  0  0  0  0
  131.6023  162.2340  155.2661 C   0  0  2  0  0  0  0  0  0  0  0  0
  131.7914  161.7575  156.6556 C   0  0  0  0  0  0  0  0  0  0  0  0
  132.9440  162.7250  154.6579 C   0  0  1  0  0  0  0  0  0  0  0  0
  132.5660  163.2181  153.2805 C   0  0  0  0  0  0  0  0  0  0  0  0
  133.8230  161.5413  154.5350 C   0  0  0  0  0  0  0  0  0  0  0  0
  135.2892  161.9168  154.4163 C   0  0  1  0  0  0  0  0  0  0  0  0
  135.4311  162.5778  153.2124 O   0  0  0  0  0  0  0  0  0  0  0  0
  135.6101  162.7417  155.6376 C   0  0  1  0  0  0  0  0  0  0  0  0
  137.0414  162.7594  156.0022 C   0  0  2  0  0  0  0  0  0  0  0  0
  137.9638  163.1606  154.8663 C   0  0  0  0  0  0  0  0  0  0  0  0
  137.4593  161.3426  156.3675 C   0  0  0  0  0  0  0  0  0  0  0  0
  136.6345  160.7835  157.3087 O   0  0  0  0  0  0  0  0  0  0  0  0
  137.3755  163.6332  157.1600 C   0  0  1  0  0  0  0  0  0  0  0  0
  138.7390  163.9962  157.1023 O   0  0  0  0  0  0  0  0  0  0  0  0
  136.5645  164.8740  157.3094 C   0  0  2  0  0  0  0  0  0  0  0  0
  136.6633  165.2674  158.6660 O   0  0  0  0  0  0  0  0  0  0  0  0
  135.1236  164.6731  157.0308 C   0  0  0  0  0  0  0  0  0  0  0  0
  134.8817  164.0540  155.6413 C   0  0  2  0  0  0  0  0  0  0  0  0
  135.3808  165.0595  154.6762 C   0  0  0  0  0  0  0  0  0  0  0  0
  127.5027  161.6239  154.5118 C   0  0  0  0  0  0  0  0  0  0  0  0
  126.8691  160.4136  154.6904 O   0  0  0  0  0  0  0  0  0  0  0  0
  127.0835  162.4454  153.6967 O   0  0  0  0  0  0  0  0  0  0  0  0
  1  2  1  6
  2  3  1  0
  3  4  2  0
  5  4  1  1
  5  6  1  0
  6  7  1  6
  6  8  1  0
  8  9  1  1
  8 10  1  0
 10 11  1  0
 11 12  1  0
 12 13  1  0
 13 14  1  0
 14 15  1  0
 15 16  1  1
 15 17  1  0
 17 18  1  6
 17 19  1  0
 19 20  1  0
 20 21  1  6
 22 20  1  6
 22 23  1  0
 23 24  1  6
 23 25  1  0
 25 26  1  0
 23 27  1  0
 27 28  1  6
 27 29  1  0
 29 30  1  1
 29 31  1  0
 31 32  1  0
 32 33  1  6
 12 34  1  6
 34 35  1  0
 34 36  2  0
 17  1  1  0
 32 22  1  0
 32  1  1  0
 15  4  1  0
 12  5  1  0
M  END
$$$$
