
     RDKit          3D

 36 40  0  0  0  0  0  0  0  0999 V2000
  163.8964  148.3165  125.8943 C   0  0  1  0  0  0  0  0  0  0  0  0
  163.6665  149.5381  125.0515 C   0  0  0  0  0  0  0  0  0  0  0  0
  164.2602  150.7113  125.7381 C   0  0  0  0  0  0  0  0  0  0  0  0
  164.8190  150.7090  126.9322 C   0  0  0  0  0  0  0  0  0  0  0  0
  165.3593  151.9881  127.4628 C   0  0  2  0  0  0  0  0  0  0  0  0
  165.8332  152.8844  126.3661 C   0  0  1  0  0  0  0  0  0  0  0  0
  164.7288  153.8875  125.9957 C   0  0  0  0  0  0  0  0  0  0  0  0
  167.0406  153.7230  126.7006 C   0  0  2  0  0  0  0  0  0  0  0  0
  167.5589  154.2244  125.3338 C   0  0  0  0  0  0  0  0  0  0  0  0
  168.1500  152.9617  127.3277 C   0  0  0  0  0  0  0  0  0  0  0  0
  167.7509  151.7231  128.0801 C   0  0  0  0  0  0  0  0  0  0  0  0
  166.3386  151.8412  128.5773 C   0  0  2  0  0  0  0  0  0  0  0  0
  166.0041  150.7151  129.5443 C   0  0  0  0  0  0  0  0  0  0  0  0
  164.8160  149.9057  129.1806 C   0  0  0  0  0  0  0  0  0  0  0  0
  164.8995  149.4500  127.7560 C   0  0  2  0  0  0  0  0  0  0  0  0
  166.1323  148.6541  127.5547 C   0  0  0  0  0  0  0  0  0  0  0  0
  163.6426  148.6514  127.3164 C   0  0  1  0  0  0  0  0  0  0  0  0
  162.4988  149.6143  127.5346 C   0  0  0  0  0  0  0  0  0  0  0  0
  163.5094  147.5074  128.2451 C   0  0  0  0  0  0  0  0  0  0  0  0
  162.6450  146.3960  127.6769 C   0  0  1  0  0  0  0  0  0  0  0  0
  161.3660  146.9053  127.5720 O   0  0  0  0  0  0  0  0  0  0  0  0
  163.2816  145.9981  126.3687 C   0  0  1  0  0  0  0  0  0  0  0  0
  162.9491  144.6305  125.9202 C   0  0  2  0  0  0  0  0  0  0  0  0
  161.4603  144.3430  125.8645 C   0  0  0  0  0  0  0  0  0  0  0  0
  163.5028  143.6454  126.9391 C   0  0  0  0  0  0  0  0  0  0  0  0
  164.5541  142.9194  126.4426 O   0  0  0  0  0  0  0  0  0  0  0  0
  163.5113  144.2594  124.5928 C   0  0  1  0  0  0  0  0  0  0  0  0
  162.7477  143.2133  124.0301 O   0  0  0  0  0  0  0  0  0  0  0  0
  163.6194  145.3552  123.5892 C   0  0  2  0  0  0  0  0  0  0  0  0
  164.5997  144.9548  122.6493 O   0  0  0  0  0  0  0  0  0  0  0  0
  164.0844  146.6381  124.1655 C   0  0  0  0  0  0  0  0  0  0  0  0
  163.2083  147.0953  125.3471 C   0  0  2  0  0  0  0  0  0  0  0  0
  161.8675  147.3335  124.7667 C   0  0  0  0  0  0  0  0  0  0  0  0
  166.2668  153.0738  129.4134 C   0  0  0  0  0  0  0  0  0  0  0  0
  167.0191  153.1178  130.5667 O   0  0  0  0  0  0  0  0  0  0  0  0
  165.5564  154.0230  129.0826 O   0  0  0  0  0  0  0  0  0  0  0  0
  1  2  1  6
  2  3  1  0
  3  4  2  0
  5  4  1  6
  5  6  1  0
  6  7  1  1
  6  8  1  0
  8  9  1  6
  8 10  1  0
 10 11  1  0
 11 12  1  0
 12 13  1  0
 13 14  1  0
 14 15  1  0
 15 16  1  1
 15 17  1  0
 17 18  1  6
 17 19  1  0
 19 20  1  0
 20 21  1  6
 22 20  1  1
 22 23  1  0
 23 24  1  6
 23 25  1  0
 25 26  1  0
 23 27  1  0
 27 28  1  6
 27 29  1  0
 29 30  1  6
 29 31  1  0
 31 32  1  0
 32 33  1  6
 12 34  1  1
 34 35  1  0
 34 36  2  0
 17  1  1  0
 32 22  1  0
 32  1  1  0
 15  4  1  0
 12  5  1  0
M  END
$$$$
