
     RDKit          3D

 36 40  0  0  0  0  0  0  0  0999 V2000
  164.2299  148.4662  125.5712 C   0  0  1  0  0  0  0  0  0  0  0  0
  163.4708  149.6621  125.0720 C   0  0  0  0  0  0  0  0  0  0  0  0
  163.9618  150.8696  125.7798 C   0  0  0  0  0  0  0  0  0  0  0  0
  164.8522  150.8892  126.7520 C   0  0  0  0  0  0  0  0  0  0  0  0
  165.2206  152.2004  127.3475 C   0  0  2  0  0  0  0  0  0  0  0  0
  165.1049  153.3099  126.3543 C   0  0  1  0  0  0  0  0  0  0  0  0
  163.7396  154.0015  126.4985 C   0  0  0  0  0  0  0  0  0  0  0  0
  166.1277  154.4081  126.4983 C   0  0  2  0  0  0  0  0  0  0  0  0
  166.0594  155.1832  125.1632 C   0  0  0  0  0  0  0  0  0  0  0  0
  167.5223  153.9198  126.6407 C   0  0  0  0  0  0  0  0  0  0  0  0
  167.6778  152.5430  127.2237 C   0  0  0  0  0  0  0  0  0  0  0  0
  166.5063  152.2078  128.1019 C   0  0  2  0  0  0  0  0  0  0  0  0
  166.7628  150.9324  128.8910 C   0  0  0  0  0  0  0  0  0  0  0  0
  165.7417  149.8706  128.7197 C   0  0  0  0  0  0  0  0  0  0  0  0
  165.4763  149.6183  127.2670 C   0  0  2  0  0  0  0  0  0  0  0  0
  166.7322  149.2240  126.5882 C   0  0  0  0  0  0  0  0  0  0  0  0
  164.3656  148.5563  127.0450 C   0  0  1  0  0  0  0  0  0  0  0  0
  163.1583  149.1329  127.7473 C   0  0  0  0  0  0  0  0  0  0  0  0
  164.7994  147.3240  127.7394 C   0  0  0  0  0  0  0  0  0  0  0  0
  164.0821  146.0870  127.2292 C   0  0  1  0  0  0  0  0  0  0  0  0
  162.7537  146.2293  127.5776 O   0  0  0  0  0  0  0  0  0  0  0  0
  164.3491  146.0304  125.7458 C   0  0  1  0  0  0  0  0  0  0  0  0
  164.2184  144.6834  125.1540 C   0  0  2  0  0  0  0  0  0  0  0  0
  162.8966  144.0017  125.4546 C   0  0  0  0  0  0  0  0  0  0  0  0
  165.2762  143.7834  125.7754 C   0  0  0  0  0  0  0  0  0  0  0  0
  166.3941  143.6755  124.9896 O   0  0  0  0  0  0  0  0  0  0  0  0
  164.4047  144.6338  123.6780 C   0  0  1  0  0  0  0  0  0  0  0  0
  163.7667  143.4865  123.1576 O   0  0  0  0  0  0  0  0  0  0  0  0
  163.9354  145.8215  122.9107 C   0  0  2  0  0  0  0  0  0  0  0  0
  164.6352  145.8170  121.6798 O   0  0  0  0  0  0  0  0  0  0  0  0
  164.2479  147.1103  123.5706 C   0  0  0  0  0  0  0  0  0  0  0  0
  163.7068  147.1711  125.0115 C   0  0  2  0  0  0  0  0  0  0  0  0
  162.2348  147.0908  124.8771 C   0  0  0  0  0  0  0  0  0  0  0  0
  166.4179  153.2704  129.1443 C   0  0  0  0  0  0  0  0  0  0  0  0
  165.1672  153.6318  129.5950 O   0  0  0  0  0  0  0  0  0  0  0  0
  167.4322  153.8080  129.5883 O   0  0  0  0  0  0  0  0  0  0  0  0
  1  2  1  1
  2  3  1  0
  3  4  2  0
  5  4  1  6
  5  6  1  0
  6  7  1  1
  6  8  1  0
  8  9  1  6
  8 10  1  0
 10 11  1  0
 11 12  1  0
 12 13  1  0
 13 14  1  0
 14 15  1  0
 15 16  1  6
 15 17  1  0
 17 18  1  1
 17 19  1  0
 19 20  1  0
 20 21  1  6
 22 20  1  1
 22 23  1  0
 23 24  1  6
 23 25  1  0
 25 26  1  0
 23 27  1  0
 27 28  1  6
 27 29  1  0
 29 30  1  6
 29 31  1  0
 31 32  1  0
 32 33  1  6
 12 34  1  1
 34 35  1  0
 34 36  2  0
 17  1  1  0
 32 22  1  0
 32  1  1  0
 15  4  1  0
 12  5  1  0
M  END
$$$$
