
     RDKit          3D

 36 40  0  0  0  0  0  0  0  0999 V2000
  165.3331  148.3068  126.7140 C   0  0  1  0  0  0  0  0  0  0  0  0
  166.8067  148.0471  126.8426 C   0  0  0  0  0  0  0  0  0  0  0  0
  167.3668  148.9665  127.8631 C   0  0  0  0  0  0  0  0  0  0  0  0
  166.7075  149.9188  128.4930 C   0  0  0  0  0  0  0  0  0  0  0  0
  167.4395  150.7482  129.4858 C   0  0  2  0  0  0  0  0  0  0  0  0
  168.5441  149.9828  130.1374 C   0  0  1  0  0  0  0  0  0  0  0  0
  169.8724  150.2642  129.4164 C   0  0  0  0  0  0  0  0  0  0  0  0
  168.7935  150.3242  131.5845 C   0  0  2  0  0  0  0  0  0  0  0  0
  169.6583  149.1596  132.1174 C   0  0  0  0  0  0  0  0  0  0  0  0
  167.5647  150.3625  132.4166 C   0  0  0  0  0  0  0  0  0  0  0  0
  166.2886  150.6744  131.6860 C   0  0  0  0  0  0  0  0  0  0  0  0
  166.5725  151.4817  130.4516 C   0  0  2  0  0  0  0  0  0  0  0  0
  165.2854  152.0144  129.8396 C   0  0  0  0  0  0  0  0  0  0  0  0
  165.0682  151.6530  128.4178 C   0  0  0  0  0  0  0  0  0  0  0  0
  165.2510  150.1807  128.2101 C   0  0  2  0  0  0  0  0  0  0  0  0
  164.3068  149.4311  129.0704 C   0  0  0  0  0  0  0  0  0  0  0  0
  165.0942  149.7702  126.7208 C   0  0  1  0  0  0  0  0  0  0  0  0
  166.1509  150.5768  126.0026 C   0  0  0  0  0  0  0  0  0  0  0  0
  163.7520  150.2168  126.2873 C   0  0  0  0  0  0  0  0  0  0  0  0
  163.2704  149.4875  125.0458 C   0  0  1  0  0  0  0  0  0  0  0  0
  164.1087  149.8656  124.0159 O   0  0  0  0  0  0  0  0  0  0  0  0
  163.3010  148.0182  125.3853 C   0  0  1  0  0  0  0  0  0  0  0  0
  162.4005  147.1841  124.5637 C   0  0  2  0  0  0  0  0  0  0  0  0
  162.5878  147.3598  123.0683 C   0  0  0  0  0  0  0  0  0  0  0  0
  160.9674  147.6174  124.8350 C   0  0  0  0  0  0  0  0  0  0  0  0
  160.3214  146.7686  125.6958 O   0  0  0  0  0  0  0  0  0  0  0  0
  162.4828  145.7239  124.8412 C   0  0  1  0  0  0  0  0  0  0  0  0
  162.0274  145.0010  123.7169 O   0  0  0  0  0  0  0  0  0  0  0  0
  163.8218  145.1975  125.2280 C   0  0  2  0  0  0  0  0  0  0  0  0
  163.6002  143.9830  125.9213 O   0  0  0  0  0  0  0  0  0  0  0  0
  164.5587  146.0863  126.1559 C   0  0  0  0  0  0  0  0  0  0  0  0
  164.6990  147.5165  125.6014 C   0  0  2  0  0  0  0  0  0  0  0  0
  165.5203  147.3795  124.3775 C   0  0  0  0  0  0  0  0  0  0  0  0
  167.3052  152.7063  130.8841 C   0  0  0  0  0  0  0  0  0  0  0  0
  168.2425  153.2365  130.0247 O   0  0  0  0  0  0  0  0  0  0  0  0
  167.0790  153.2272  131.9761 O   0  0  0  0  0  0  0  0  0  0  0  0
  1  2  1  6
  2  3  1  0
  3  4  2  0
  5  4  1  1
  5  6  1  0
  6  7  1  6
  6  8  1  0
  8  9  1  1
  8 10  1  0
 10 11  1  0
 11 12  1  0
 12 13  1  0
 13 14  1  0
 14 15  1  0
 15 16  1  1
 15 17  1  0
 17 18  1  6
 17 19  1  0
 19 20  1  0
 20 21  1  6
 22 20  1  6
 22 23  1  0
 23 24  1  6
 23 25  1  0
 25 26  1  0
 23 27  1  0
 27 28  1  6
 27 29  1  0
 29 30  1  1
 29 31  1  0
 31 32  1  0
 32 33  1  6
 12 34  1  1
 34 35  1  0
 34 36  2  0
 17  1  1  0
 32 22  1  0
 32  1  1  0
 15  4  1  0
 12  5  1  0
M  END
$$$$
