
     RDKit          3D

 45 52  0  0  0  0  0  0  0  0999 V2000
  123.7752  154.7375  149.6741 C   0  0  2  0  0  0  0  0  0  0  0  0
  123.3891  154.1694  150.9682 C   0  0  0  0  0  0  0  0  0  0  0  0
  122.9408  152.7789  151.1713 C   0  0  0  0  0  0  0  0  0  0  0  0
  122.3800  151.8620  150.3047 C   0  0  0  0  0  0  0  0  0  0  0  0
  122.1495  150.6057  150.7924 C   0  0  0  0  0  0  0  0  0  0  0  0
  121.6098  149.4955  149.9920 O   0  0  0  0  0  0  0  0  0  0  0  0
  122.4205  149.2967  148.7499 C   0  0  0  0  0  0  0  0  0  0  0  0
  122.0566  149.9760  147.6343 C   0  0  0  0  0  0  0  0  0  0  0  0
  122.7788  149.9225  146.4134 C   0  0  0  0  0  0  0  0  0  0  0  0
  123.9138  149.1389  146.3371 C   0  0  0  0  0  0  0  0  0  0  0  0
  124.8415  149.1968  145.1188 C   0  0  0  0  0  0  0  0  0  0  0  0
  124.1387  149.5283  143.8834 C   0  0  2  0  0  0  0  0  0  0  0  0
  124.8218  148.7459  142.8425 N   0  0  0  0  0  0  0  0  0  0  0  0
  124.6641  147.3278  143.1096 C   0  0  0  0  0  0  0  0  0  0  0  0
  124.5465  149.1007  141.5110 C   0  0  0  0  0  0  0  0  0  0  0  0
  123.1020  149.5928  141.4548 C   0  0  0  0  0  0  0  0  0  0  0  0
  123.1984  150.9032  142.2139 C   0  0  0  0  0  0  0  0  0  0  0  0
  123.8295  150.8762  143.4678 C   0  0  0  0  0  0  0  0  0  0  0  0
  123.9603  152.1224  144.1070 C   0  0  0  0  0  0  0  0  0  0  0  0
  124.5611  152.2344  145.3258 O   0  0  0  0  0  0  0  0  0  0  0  0
  124.8525  152.7585  146.5420 C   0  0  0  0  0  0  0  0  0  0  0  0
  124.0074  153.4308  147.4357 C   0  0  0  0  0  0  0  0  0  0  0  0
  124.4585  153.9236  148.6323 C   0  0  0  0  0  0  0  0  0  0  0  0
  125.8031  153.7465  148.9691 C   0  0  0  0  0  0  0  0  0  0  0  0
  126.4172  154.2561  150.2320 C   0  0  0  0  0  0  0  0  0  0  0  0
  125.8382  155.5870  150.5996 C   0  0  0  0  0  0  0  0  0  0  0  0
  124.6653  155.9417  149.9169 N   0  0  0  0  0  0  0  0  0  0  0  0
  124.9271  156.6003  148.6789 C   0  0  0  0  0  0  0  0  0  0  0  0
  126.7025  153.0779  148.1194 C   0  0  0  0  0  0  0  0  0  0  0  0
  126.1818  152.6211  146.9544 C   0  0  0  0  0  0  0  0  0  0  0  0
  127.1417  151.9594  146.1457 O   0  0  0  0  0  0  0  0  0  0  0  0
  127.3254  152.2612  144.7931 C   0  0  0  0  0  0  0  0  0  0  0  0
  123.4506  153.2581  143.4371 C   0  0  0  0  0  0  0  0  0  0  0  0
  123.3950  154.6393  143.7500 O   0  0  0  0  0  0  0  0  0  0  0  0
  123.2082  155.3953  142.5871 C   0  0  0  0  0  0  0  0  0  0  0  0
  122.4304  154.5001  141.7968 O   0  0  0  0  0  0  0  0  0  0  0  0
  122.8396  153.2207  142.2076 C   0  0  0  0  0  0  0  0  0  0  0  0
  122.7159  152.0022  141.5830 C   0  0  0  0  0  0  0  0  0  0  0  0
  124.2720  148.4295  147.4839 C   0  0  0  0  0  0  0  0  0  0  0  0
  123.5153  148.5139  148.6896 C   0  0  0  0  0  0  0  0  0  0  0  0
  122.4192  150.2196  152.0704 C   0  0  0  0  0  0  0  0  0  0  0  0
  122.1656  148.9221  152.5663 O   0  0  0  0  0  0  0  0  0  0  0  0
  122.5251  147.7612  151.8665 C   0  0  0  0  0  0  0  0  0  0  0  0
  122.9780  151.0972  152.9914 C   0  0  0  0  0  0  0  0  0  0  0  0
  123.2184  152.3477  152.4994 C   0  0  0  0  0  0  0  0  0  0  0  0
  1  2  1  0
  2  3  1  0
  3  4  2  0
  4  5  1  0
  5  6  1  0
  6  7  1  0
  7  8  2  0
  8  9  1  0
  9 10  2  0
 10 11  1  0
 11 12  1  0
 12 13  1  6
 13 14  1  0
 13 15  1  0
 15 16  1  0
 16 17  1  0
 17 18  2  0
 18 19  1  0
 19 20  1  0
 20 21  1  0
 21 22  2  0
 22 23  1  0
 23 24  2  0
 24 25  1  0
 25 26  1  0
 26 27  1  0
 27 28  1  0
 24 29  1  0
 29 30  2  0
 30 31  1  0
 31 32  1  0
 19 33  2  0
 33 34  1  0
 34 35  1  0
 35 36  1  0
 36 37  1  0
 37 38  2  0
 10 39  1  0
 39 40  2  0
  5 41  2  0
 41 42  1  0
 42 43  1  0
 41 44  1  0
 44 45  2  0
 23  1  1  0
 37 33  1  0
  1 27  1  1
 45  3  1  0
 40  7  1  0
 18 12  1  0
 30 21  1  0
 38 17  1  0
M  END
$$$$
