
     RDKit          3D

 45 52  0  0  0  0  0  0  0  0999 V2000
  121.5437  151.0517  149.4537 C   0  0  2  0  0  0  0  0  0  0  0  0
  120.8627  150.7330  150.7113 C   0  0  0  0  0  0  0  0  0  0  0  0
  119.9624  149.5810  150.9068 C   0  0  0  0  0  0  0  0  0  0  0  0
  119.2214  148.8359  150.0112 C   0  0  0  0  0  0  0  0  0  0  0  0
  118.5411  147.7603  150.5105 C   0  0  0  0  0  0  0  0  0  0  0  0
  117.7493  146.8307  149.6897 O   0  0  0  0  0  0  0  0  0  0  0  0
  118.5704  146.2920  148.5606 C   0  0  0  0  0  0  0  0  0  0  0  0
  118.5663  146.9712  147.3871 C   0  0  0  0  0  0  0  0  0  0  0  0
  119.3501  146.5997  146.2635 C   0  0  0  0  0  0  0  0  0  0  0  0
  120.1646  145.4873  146.3497 C   0  0  0  0  0  0  0  0  0  0  0  0
  121.1778  145.1545  145.2493 C   0  0  0  0  0  0  0  0  0  0  0  0
  120.7529  145.6068  143.9285 C   0  0  2  0  0  0  0  0  0  0  0  0
  121.2413  144.5733  143.0035 N   0  0  0  0  0  0  0  0  0  0  0  0
  120.5982  143.3056  143.2982 C   0  0  0  0  0  0  0  0  0  0  0  0
  121.2349  144.9023  141.6375 C   0  0  0  0  0  0  0  0  0  0  0  0
  120.0473  145.8305  141.3928 C   0  0  0  0  0  0  0  0  0  0  0  0
  120.4933  147.0895  142.1129 C   0  0  0  0  0  0  0  0  0  0  0  0
  120.9495  146.9490  143.4333 C   0  0  0  0  0  0  0  0  0  0  0  0
  121.4187  148.1278  144.0407 C   0  0  0  0  0  0  0  0  0  0  0  0
  121.8960  148.1257  145.3179 O   0  0  0  0  0  0  0  0  0  0  0  0
  122.2192  148.6123  146.5416 C   0  0  0  0  0  0  0  0  0  0  0  0
  121.5573  149.5841  147.3048 C   0  0  0  0  0  0  0  0  0  0  0  0
  122.0220  149.9881  148.5291 C   0  0  0  0  0  0  0  0  0  0  0  0
  123.1913  149.4095  149.0297 C   0  0  0  0  0  0  0  0  0  0  0  0
  123.8079  149.7812  150.3386 C   0  0  0  0  0  0  0  0  0  0  0  0
  123.6663  151.2506  150.5890 C   0  0  0  0  0  0  0  0  0  0  0  0
  122.7518  151.9165  149.7598 N   0  0  0  0  0  0  0  0  0  0  0  0
  123.3403  152.3648  148.5401 C   0  0  0  0  0  0  0  0  0  0  0  0
  123.9009  148.4268  148.3164 C   0  0  0  0  0  0  0  0  0  0  0  0
  123.3797  148.0815  147.1139 C   0  0  0  0  0  0  0  0  0  0  0  0
  124.1441  147.0886  146.4484 O   0  0  0  0  0  0  0  0  0  0  0  0
  123.6488  146.3540  145.3669 C   0  0  0  0  0  0  0  0  0  0  0  0
  121.3831  149.3166  143.2766 C   0  0  0  0  0  0  0  0  0  0  0  0
  121.7550  150.6599  143.5334 O   0  0  0  0  0  0  0  0  0  0  0  0
  121.9470  151.3507  142.3314 C   0  0  0  0  0  0  0  0  0  0  0  0
  121.0017  150.7019  141.4851 O   0  0  0  0  0  0  0  0  0  0  0  0
  120.9219  149.3916  141.9850 C   0  0  0  0  0  0  0  0  0  0  0  0
  120.4670  148.2377  141.3920 C   0  0  0  0  0  0  0  0  0  0  0  0
  120.1503  144.7837  147.5544 C   0  0  0  0  0  0  0  0  0  0  0  0
  119.3458  145.1946  148.6579 C   0  0  0  0  0  0  0  0  0  0  0  0
  118.5372  147.3997  151.8239 C   0  0  0  0  0  0  0  0  0  0  0  0
  117.8208  146.2933  152.3299 O   0  0  0  0  0  0  0  0  0  0  0  0
  117.9585  144.9995  151.8066 C   0  0  0  0  0  0  0  0  0  0  0  0
  119.2579  148.1122  152.7745 C   0  0  0  0  0  0  0  0  0  0  0  0
  119.9461  149.1790  152.2723 C   0  0  0  0  0  0  0  0  0  0  0  0
  1  2  1  0
  2  3  1  0
  3  4  2  0
  4  5  1  0
  5  6  1  0
  6  7  1  0
  7  8  2  0
  8  9  1  0
  9 10  2  0
 10 11  1  0
 11 12  1  0
 12 13  1  6
 13 14  1  0
 13 15  1  0
 15 16  1  0
 16 17  1  0
 17 18  2  0
 18 19  1  0
 19 20  1  0
 20 21  1  0
 21 22  2  0
 22 23  1  0
 23 24  2  0
 24 25  1  0
 25 26  1  0
 26 27  1  0
 27 28  1  0
 24 29  1  0
 29 30  2  0
 30 31  1  0
 31 32  1  0
 19 33  2  0
 33 34  1  0
 34 35  1  0
 35 36  1  0
 36 37  1  0
 37 38  2  0
 10 39  1  0
 39 40  2  0
  5 41  2  0
 41 42  1  0
 42 43  1  0
 41 44  1  0
 44 45  2  0
 23  1  1  0
 37 33  1  0
  1 27  1  1
 45  3  1  0
 40  7  1  0
 18 12  1  0
 30 21  1  0
 38 17  1  0
M  END
$$$$
