
     RDKit          3D

 45 52  0  0  0  0  0  0  0  0999 V2000
  157.2763  200.5636  160.5607 C   0  0  2  0  0  0  0  0  0  0  0  0
  158.4061  201.2243  161.2195 C   0  0  0  0  0  0  0  0  0  0  0  0
  159.6251  200.5343  161.6819 C   0  0  0  0  0  0  0  0  0  0  0  0
  159.8584  199.2162  162.0203 C   0  0  0  0  0  0  0  0  0  0  0  0
  161.1437  198.8736  162.3363 C   0  0  0  0  0  0  0  0  0  0  0  0
  161.5764  197.5067  162.6663 O   0  0  0  0  0  0  0  0  0  0  0  0
  161.1621  196.5481  161.5944 C   0  0  0  0  0  0  0  0  0  0  0  0
  159.9519  195.9473  161.7080 C   0  0  0  0  0  0  0  0  0  0  0  0
  159.4179  195.0687  160.7292 C   0  0  0  0  0  0  0  0  0  0  0  0
  160.1576  194.7961  159.5949 C   0  0  0  0  0  0  0  0  0  0  0  0
  159.5551  194.0212  158.4181 C   0  0  0  0  0  0  0  0  0  0  0  0
  158.5323  193.0652  158.8300 C   0  0  2  0  0  0  0  0  0  0  0  0
  158.6989  191.9228  157.9192 N   0  0  0  0  0  0  0  0  0  0  0  0
  160.0082  191.3263  158.1124 C   0  0  0  0  0  0  0  0  0  0  0  0
  157.6527  190.9852  157.8934 C   0  0  0  0  0  0  0  0  0  0  0  0
  157.0498  190.9291  159.2953 C   0  0  0  0  0  0  0  0  0  0  0  0
  156.3780  192.2863  159.3908 C   0  0  0  0  0  0  0  0  0  0  0  0
  157.1489  193.4114  159.0574 C   0  0  0  0  0  0  0  0  0  0  0  0
  156.4698  194.6428  159.0916 C   0  0  0  0  0  0  0  0  0  0  0  0
  157.1025  195.8102  158.7817 O   0  0  0  0  0  0  0  0  0  0  0  0
  157.3553  197.1424  158.7786 C   0  0  0  0  0  0  0  0  0  0  0  0
  157.1827  198.0730  159.8125 C   0  0  0  0  0  0  0  0  0  0  0  0
  157.4689  199.4032  159.6490 C   0  0  0  0  0  0  0  0  0  0  0  0
  157.9496  199.8412  158.4122 C   0  0  0  0  0  0  0  0  0  0  0  0
  158.2760  201.2662  158.1049 C   0  0  0  0  0  0  0  0  0  0  0  0
  157.2997  202.1855  158.7709 C   0  0  0  0  0  0  0  0  0  0  0  0
  156.5034  201.5987  159.7654 N   0  0  0  0  0  0  0  0  0  0  0  0
  155.3145  201.0092  159.2416 C   0  0  0  0  0  0  0  0  0  0  0  0
  158.1489  198.9589  157.3353 C   0  0  0  0  0  0  0  0  0  0  0  0
  157.8419  197.6605  157.5741 C   0  0  0  0  0  0  0  0  0  0  0  0
  158.0646  196.8270  156.4477 O   0  0  0  0  0  0  0  0  0  0  0  0
  159.3146  196.7071  155.8332 C   0  0  0  0  0  0  0  0  0  0  0  0
  155.1035  194.6267  159.4540 C   0  0  0  0  0  0  0  0  0  0  0  0
  154.1145  195.6316  159.5984 O   0  0  0  0  0  0  0  0  0  0  0  0
  152.8347  195.0692  159.5300 C   0  0  0  0  0  0  0  0  0  0  0  0
  153.0669  193.7827  160.0973 O   0  0  0  0  0  0  0  0  0  0  0  0
  154.4017  193.4898  159.7725 C   0  0  0  0  0  0  0  0  0  0  0  0
  155.0665  192.2870  159.7350 C   0  0  0  0  0  0  0  0  0  0  0  0
  161.4090  195.4044  159.4934 C   0  0  0  0  0  0  0  0  0  0  0  0
  161.9052  196.2811  160.5029 C   0  0  0  0  0  0  0  0  0  0  0  0
  162.1865  199.7496  162.3552 C   0  0  0  0  0  0  0  0  0  0  0  0
  163.5080  199.3863  162.6950 O   0  0  0  0  0  0  0  0  0  0  0  0
  164.3175  200.1710  163.5291 C   0  0  0  0  0  0  0  0  0  0  0  0
  162.0151  201.0896  162.0304 C   0  0  0  0  0  0  0  0  0  0  0  0
  160.7334  201.4275  161.7036 C   0  0  0  0  0  0  0  0  0  0  0  0
  1  2  1  0
  2  3  1  0
  3  4  2  0
  4  5  1  0
  5  6  1  0
  6  7  1  0
  7  8  2  0
  8  9  1  0
  9 10  2  0
 10 11  1  0
 11 12  1  0
 12 13  1  6
 13 14  1  0
 13 15  1  0
 15 16  1  0
 16 17  1  0
 17 18  2  0
 18 19  1  0
 19 20  1  0
 20 21  1  0
 21 22  2  0
 22 23  1  0
 23 24  2  0
 24 25  1  0
 25 26  1  0
 26 27  1  0
 27 28  1  0
 24 29  1  0
 29 30  2  0
 30 31  1  0
 31 32  1  0
 19 33  2  0
 33 34  1  0
 34 35  1  0
 35 36  1  0
 36 37  1  0
 37 38  2  0
 10 39  1  0
 39 40  2  0
  5 41  2  0
 41 42  1  0
 42 43  1  0
 41 44  1  0
 44 45  2  0
 23  1  1  0
 37 33  1  0
  1 27  1  6
 45  3  1  0
 40  7  1  0
 18 12  1  0
 30 21  1  0
 38 17  1  0
M  END
$$$$
