
     RDKit          3D

 45 52  0  0  0  0  0  0  0  0999 V2000
  130.0346  142.6467  129.2713 C   0  0  2  0  0  0  0  0  0  0  0  0
  130.6914  143.0607  128.0287 C   0  0  0  0  0  0  0  0  0  0  0  0
  131.9671  142.5103  127.5331 C   0  0  0  0  0  0  0  0  0  0  0  0
  133.0120  141.8892  128.1877 C   0  0  0  0  0  0  0  0  0  0  0  0
  134.0340  141.4121  127.4150 C   0  0  0  0  0  0  0  0  0  0  0  0
  135.1951  140.6786  127.9428 O   0  0  0  0  0  0  0  0  0  0  0  0
  134.7521  139.5175  128.7765 C   0  0  0  0  0  0  0  0  0  0  0  0
  134.5647  139.7191  130.1041 C   0  0  0  0  0  0  0  0  0  0  0  0
  134.0868  138.7177  130.9894 C   0  0  0  0  0  0  0  0  0  0  0  0
  133.7949  137.4629  130.4909 C   0  0  0  0  0  0  0  0  0  0  0  0
  133.0908  136.4080  131.3509 C   0  0  0  0  0  0  0  0  0  0  0  0
  133.3898  136.5410  132.7732 C   0  0  2  0  0  0  0  0  0  0  0  0
  133.4368  135.1603  133.2768 N   0  0  0  0  0  0  0  0  0  0  0  0
  134.5186  134.4380  132.6323 C   0  0  0  0  0  0  0  0  0  0  0  0
  133.4088  135.0020  134.6727 C   0  0  0  0  0  0  0  0  0  0  0  0
  134.1272  136.2014  135.2867 C   0  0  0  0  0  0  0  0  0  0  0  0
  133.1533  137.3251  134.9848 C   0  0  0  0  0  0  0  0  0  0  0  0
  132.6983  137.4451  133.6619 C   0  0  0  0  0  0  0  0  0  0  0  0
  131.7444  138.4544  133.4386 C   0  0  0  0  0  0  0  0  0  0  0  0
  131.2168  138.6698  132.1999 O   0  0  0  0  0  0  0  0  0  0  0  0
  130.6334  139.3479  131.1808 C   0  0  0  0  0  0  0  0  0  0  0  0
  130.7814  140.6948  130.8218 C   0  0  0  0  0  0  0  0  0  0  0  0
  130.1030  141.2446  129.7656 C   0  0  0  0  0  0  0  0  0  0  0  0
  129.2393  140.4335  129.0247 C   0  0  0  0  0  0  0  0  0  0  0  0
  128.4299  140.9209  127.8676 C   0  0  0  0  0  0  0  0  0  0  0  0
  127.9388  142.3131  128.1177 C   0  0  0  0  0  0  0  0  0  0  0  0
  128.5593  142.9879  129.1792 N   0  0  0  0  0  0  0  0  0  0  0  0
  127.9307  142.7347  130.4346 C   0  0  0  0  0  0  0  0  0  0  0  0
  129.0488  139.0739  129.3298 C   0  0  0  0  0  0  0  0  0  0  0  0
  129.7530  138.6044  130.3884 C   0  0  0  0  0  0  0  0  0  0  0  0
  129.5132  137.2290  130.6414 O   0  0  0  0  0  0  0  0  0  0  0  0
  128.4685  136.7827  131.4563 C   0  0  0  0  0  0  0  0  0  0  0  0
  131.3468  139.2359  134.5475 C   0  0  0  0  0  0  0  0  0  0  0  0
  130.4399  140.3122  134.7149 O   0  0  0  0  0  0  0  0  0  0  0  0
  130.0714  140.4341  136.0597 C   0  0  0  0  0  0  0  0  0  0  0  0
  131.2591  139.9947  136.7132 O   0  0  0  0  0  0  0  0  0  0  0  0
  131.8309  139.0715  135.8222 C   0  0  0  0  0  0  0  0  0  0  0  0
  132.7605  138.0821  136.0390 C   0  0  0  0  0  0  0  0  0  0  0  0
  134.0068  137.2581  129.1272 C   0  0  0  0  0  0  0  0  0  0  0  0
  134.4888  138.2950  128.2751 C   0  0  0  0  0  0  0  0  0  0  0  0
  134.0880  141.5307  126.0592 C   0  0  0  0  0  0  0  0  0  0  0  0
  135.1550  141.0443  125.2727 O   0  0  0  0  0  0  0  0  0  0  0  0
  136.4931  141.1150  125.6862 C   0  0  0  0  0  0  0  0  0  0  0  0
  133.0709  142.1502  125.3436 C   0  0  0  0  0  0  0  0  0  0  0  0
  132.0456  142.6156  126.1156 C   0  0  0  0  0  0  0  0  0  0  0  0
  1  2  1  0
  2  3  1  0
  3  4  2  0
  4  5  1  0
  5  6  1  0
  6  7  1  0
  7  8  2  0
  8  9  1  0
  9 10  2  0
 10 11  1  0
 11 12  1  0
 12 13  1  1
 13 14  1  0
 13 15  1  0
 15 16  1  0
 16 17  1  0
 17 18  2  0
 18 19  1  0
 19 20  1  0
 20 21  1  0
 21 22  2  0
 22 23  1  0
 23 24  2  0
 24 25  1  0
 25 26  1  0
 26 27  1  0
 27 28  1  0
 24 29  1  0
 29 30  2  0
 30 31  1  0
 31 32  1  0
 19 33  2  0
 33 34  1  0
 34 35  1  0
 35 36  1  0
 36 37  1  0
 37 38  2  0
 10 39  1  0
 39 40  2  0
  5 41  2  0
 41 42  1  0
 42 43  1  0
 41 44  1  0
 44 45  2  0
 23  1  1  0
 37 33  1  0
  1 27  1  6
 45  3  1  0
 40  7  1  0
 18 12  1  0
 30 21  1  0
 38 17  1  0
M  END
$$$$
