
     RDKit          3D

 45 52  0  0  0  0  0  0  0  0999 V2000
  111.9834  166.2897  141.4666 C   0  0  2  0  0  0  0  0  0  0  0  0
  111.3763  166.0002  142.7683 C   0  0  0  0  0  0  0  0  0  0  0  0
  112.1343  165.7743  144.0134 C   0  0  0  0  0  0  0  0  0  0  0  0
  113.4333  165.3607  144.2321 C   0  0  0  0  0  0  0  0  0  0  0  0
  113.8660  165.3298  145.5286 C   0  0  0  0  0  0  0  0  0  0  0  0
  115.2330  164.9672  145.9343 O   0  0  0  0  0  0  0  0  0  0  0  0
  116.2395  165.7956  145.1994 C   0  0  0  0  0  0  0  0  0  0  0  0
  116.7113  165.3275  144.0176 C   0  0  0  0  0  0  0  0  0  0  0  0
  117.6189  166.0459  143.1960 C   0  0  0  0  0  0  0  0  0  0  0  0
  118.0594  167.2889  143.6074 C   0  0  0  0  0  0  0  0  0  0  0  0
  118.8754  168.1929  142.6773 C   0  0  0  0  0  0  0  0  0  0  0  0
  119.6906  167.4439  141.7264 C   0  0  2  0  0  0  0  0  0  0  0  0
  120.9198  168.2375  141.5801 N   0  0  0  0  0  0  0  0  0  0  0  0
  121.6174  168.3032  142.8514 C   0  0  0  0  0  0  0  0  0  0  0  0
  121.7533  167.9068  140.4983 C   0  0  0  0  0  0  0  0  0  0  0  0
  121.6279  166.4031  140.2632 C   0  0  0  0  0  0  0  0  0  0  0  0
  120.2103  166.2966  139.7325 C   0  0  0  0  0  0  0  0  0  0  0  0
  119.1968  166.9275  140.4715 C   0  0  0  0  0  0  0  0  0  0  0  0
  117.9088  166.8645  139.9095 C   0  0  0  0  0  0  0  0  0  0  0  0
  116.8383  167.4439  140.5238 O   0  0  0  0  0  0  0  0  0  0  0  0
  115.5413  167.6535  140.8596 C   0  0  0  0  0  0  0  0  0  0  0  0
  114.5106  166.7165  141.0162 C   0  0  0  0  0  0  0  0  0  0  0  0
  113.2330  167.0886  141.3439 C   0  0  0  0  0  0  0  0  0  0  0  0
  112.9536  168.4452  141.5288 C   0  0  0  0  0  0  0  0  0  0  0  0
  111.5985  168.9760  141.8658 C   0  0  0  0  0  0  0  0  0  0  0  0
  110.5360  168.1979  141.1535 C   0  0  0  0  0  0  0  0  0  0  0  0
  110.9548  166.9823  140.5929 N   0  0  0  0  0  0  0  0  0  0  0  0
  111.4737  167.1351  139.2728 C   0  0  0  0  0  0  0  0  0  0  0  0
  113.9427  169.4354  141.3905 C   0  0  0  0  0  0  0  0  0  0  0  0
  115.1801  168.9891  141.0638 C   0  0  0  0  0  0  0  0  0  0  0  0
  116.1274  170.0380  140.9390 O   0  0  0  0  0  0  0  0  0  0  0  0
  117.4964  169.8471  141.1483 C   0  0  0  0  0  0  0  0  0  0  0  0
  117.7640  166.1825  138.6798 C   0  0  0  0  0  0  0  0  0  0  0  0
  116.6616  165.9136  137.8306 O   0  0  0  0  0  0  0  0  0  0  0  0
  117.1048  165.6082  136.5386 C   0  0  0  0  0  0  0  0  0  0  0  0
  118.3521  164.9771  136.8156 O   0  0  0  0  0  0  0  0  0  0  0  0
  118.7970  165.5815  138.0030 C   0  0  0  0  0  0  0  0  0  0  0  0
  120.0557  165.6472  138.5522 C   0  0  0  0  0  0  0  0  0  0  0  0
  117.5830  167.7561  144.8326 C   0  0  0  0  0  0  0  0  0  0  0  0
  116.6710  166.9987  145.6252 C   0  0  0  0  0  0  0  0  0  0  0  0
  113.0939  165.6597  146.6011 C   0  0  0  0  0  0  0  0  0  0  0  0
  113.5484  165.6124  147.9371 O   0  0  0  0  0  0  0  0  0  0  0  0
  113.2263  164.5623  148.8090 C   0  0  0  0  0  0  0  0  0  0  0  0
  111.7778  166.0776  146.4471 C   0  0  0  0  0  0  0  0  0  0  0  0
  111.3510  166.1191  145.1510 C   0  0  0  0  0  0  0  0  0  0  0  0
  1  2  1  0
  2  3  1  0
  3  4  2  0
  4  5  1  0
  5  6  1  0
  6  7  1  0
  7  8  2  0
  8  9  1  0
  9 10  2  0
 10 11  1  0
 11 12  1  0
 12 13  1  6
 13 14  1  0
 13 15  1  0
 15 16  1  0
 16 17  1  0
 17 18  2  0
 18 19  1  0
 19 20  1  0
 20 21  1  0
 21 22  2  0
 22 23  1  0
 23 24  2  0
 24 25  1  0
 25 26  1  0
 26 27  1  0
 27 28  1  0
 24 29  1  0
 29 30  2  0
 30 31  1  0
 31 32  1  0
 19 33  2  0
 33 34  1  0
 34 35  1  0
 35 36  1  0
 36 37  1  0
 37 38  2  0
 10 39  1  0
 39 40  2  0
  5 41  2  0
 41 42  1  0
 42 43  1  0
 41 44  1  0
 44 45  2  0
 23  1  1  0
 37 33  1  0
  1 27  1  6
 45  3  1  0
 40  7  1  0
 18 12  1  0
 30 21  1  0
 38 17  1  0
M  END
$$$$
