
     RDKit          3D

 45 52  0  0  0  0  0  0  0  0999 V2000
  140.4465  151.8546  122.6565 C   0  0  2  0  0  0  0  0  0  0  0  0
  139.3651  152.8358  122.5353 C   0  0  0  0  0  0  0  0  0  0  0  0
  139.3414  153.9381  121.5554 C   0  0  0  0  0  0  0  0  0  0  0  0
  140.3570  154.5821  120.8772 C   0  0  0  0  0  0  0  0  0  0  0  0
  139.9903  155.5259  119.9585 C   0  0  0  0  0  0  0  0  0  0  0  0
  140.9388  156.2661  119.1117 O   0  0  0  0  0  0  0  0  0  0  0  0
  141.8367  155.3226  118.3749 C   0  0  0  0  0  0  0  0  0  0  0  0
  143.0017  154.9577  118.9649 C   0  0  0  0  0  0  0  0  0  0  0  0
  143.9080  154.0231  118.3991 C   0  0  0  0  0  0  0  0  0  0  0  0
  143.6060  153.4463  117.1808 C   0  0  0  0  0  0  0  0  0  0  0  0
  144.4392  152.2896  116.6186 C   0  0  0  0  0  0  0  0  0  0  0  0
  145.8353  152.3356  117.0413 C   0  0  2  0  0  0  0  0  0  0  0  0
  146.5938  151.8397  115.8833 N   0  0  0  0  0  0  0  0  0  0  0  0
  146.4120  152.7357  114.7557 C   0  0  0  0  0  0  0  0  0  0  0  0
  147.9359  151.4942  116.1156 C   0  0  0  0  0  0  0  0  0  0  0  0
  148.4704  152.4266  117.2005 C   0  0  0  0  0  0  0  0  0  0  0  0
  147.7081  151.9415  118.4195 C   0  0  0  0  0  0  0  0  0  0  0  0
  146.3151  151.8128  118.2990 C   0  0  0  0  0  0  0  0  0  0  0  0
  145.6548  151.2944  119.4277 C   0  0  0  0  0  0  0  0  0  0  0  0
  144.3035  151.1127  119.4372 O   0  0  0  0  0  0  0  0  0  0  0  0
  143.0543  150.9852  119.9490 C   0  0  0  0  0  0  0  0  0  0  0  0
  142.4903  151.6232  121.0624 C   0  0  0  0  0  0  0  0  0  0  0  0
  141.2061  151.3736  121.4705 C   0  0  0  0  0  0  0  0  0  0  0  0
  140.4374  150.4553  120.7503 C   0  0  0  0  0  0  0  0  0  0  0  0
  139.0356  150.0836  121.1084 C   0  0  0  0  0  0  0  0  0  0  0  0
  138.8694  150.0261  122.5953 C   0  0  0  0  0  0  0  0  0  0  0  0
  139.9035  150.6134  123.3390 N   0  0  0  0  0  0  0  0  0  0  0  0
  140.9730  149.7075  123.6051 C   0  0  0  0  0  0  0  0  0  0  0  0
  140.9417  149.7841  119.6220 C   0  0  0  0  0  0  0  0  0  0  0  0
  142.2193  150.0829  119.2821 C   0  0  0  0  0  0  0  0  0  0  0  0
  142.6644  149.3711  118.1383 O   0  0  0  0  0  0  0  0  0  0  0  0
  142.5738  149.8909  116.8437 C   0  0  0  0  0  0  0  0  0  0  0  0
  146.4441  150.9626  120.5525 C   0  0  0  0  0  0  0  0  0  0  0  0
  146.1522  150.4341  121.8349 O   0  0  0  0  0  0  0  0  0  0  0  0
  147.3011  149.8724  122.4035 C   0  0  0  0  0  0  0  0  0  0  0  0
  148.3178  150.7073  121.8557 O   0  0  0  0  0  0  0  0  0  0  0  0
  147.8080  151.1134  120.6113 C   0  0  0  0  0  0  0  0  0  0  0  0
  148.4518  151.6168  119.5058 C   0  0  0  0  0  0  0  0  0  0  0  0
  142.4140  153.8398  116.5718 C   0  0  0  0  0  0  0  0  0  0  0  0
  141.5333  154.7833  117.1782 C   0  0  0  0  0  0  0  0  0  0  0  0
  138.7008  155.8751  119.6932 C   0  0  0  0  0  0  0  0  0  0  0  0
  138.3347  156.8603  118.7503 O   0  0  0  0  0  0  0  0  0  0  0  0
  137.9222  156.5445  117.4477 C   0  0  0  0  0  0  0  0  0  0  0  0
  137.6351  155.2681  120.3463 C   0  0  0  0  0  0  0  0  0  0  0  0
  138.0026  154.3176  121.2547 C   0  0  0  0  0  0  0  0  0  0  0  0
  1  2  1  0
  2  3  1  0
  3  4  2  0
  4  5  1  0
  5  6  1  0
  6  7  1  0
  7  8  2  0
  8  9  1  0
  9 10  2  0
 10 11  1  0
 11 12  1  0
 12 13  1  6
 13 14  1  0
 13 15  1  0
 15 16  1  0
 16 17  1  0
 17 18  2  0
 18 19  1  0
 19 20  1  0
 20 21  1  0
 21 22  2  0
 22 23  1  0
 23 24  2  0
 24 25  1  0
 25 26  1  0
 26 27  1  0
 27 28  1  0
 24 29  1  0
 29 30  2  0
 30 31  1  0
 31 32  1  0
 19 33  2  0
 33 34  1  0
 34 35  1  0
 35 36  1  0
 36 37  1  0
 37 38  2  0
 10 39  1  0
 39 40  2  0
  5 41  2  0
 41 42  1  0
 42 43  1  0
 41 44  1  0
 44 45  2  0
 23  1  1  0
 37 33  1  0
  1 27  1  6
 45  3  1  0
 40  7  1  0
 18 12  1  0
 30 21  1  0
 38 17  1  0
M  END
$$$$
