
     RDKit          3D

 45 52  0  0  0  0  0  0  0  0999 V2000
  111.7141  168.2009  144.2929 C   0  0  2  0  0  0  0  0  0  0  0  0
  111.5551  168.6579  145.6759 C   0  0  0  0  0  0  0  0  0  0  0  0
  112.6597  168.7966  146.6435 C   0  0  0  0  0  0  0  0  0  0  0  0
  113.9022  168.1979  146.7064 C   0  0  0  0  0  0  0  0  0  0  0  0
  114.7418  168.6111  147.7032 C   0  0  0  0  0  0  0  0  0  0  0  0
  116.1167  168.1188  147.8816 O   0  0  0  0  0  0  0  0  0  0  0  0
  116.9000  168.2683  146.6153 C   0  0  0  0  0  0  0  0  0  0  0  0
  116.8897  167.2390  145.7328 C   0  0  0  0  0  0  0  0  0  0  0  0
  117.5391  167.2815  144.4713 C   0  0  0  0  0  0  0  0  0  0  0  0
  118.2267  168.4228  144.1068 C   0  0  0  0  0  0  0  0  0  0  0  0
  118.7742  168.6039  142.6871 C   0  0  0  0  0  0  0  0  0  0  0  0
  119.1321  167.3408  142.0496 C   0  0  2  0  0  0  0  0  0  0  0  0
  120.3188  167.6532  141.2393 N   0  0  0  0  0  0  0  0  0  0  0  0
  121.4080  168.0717  142.1029 C   0  0  0  0  0  0  0  0  0  0  0  0
  120.6955  166.6931  140.2850 C   0  0  0  0  0  0  0  0  0  0  0  0
  120.3334  165.3197  140.8458 C   0  0  0  0  0  0  0  0  0  0  0  0
  118.8173  165.3645  140.8018 C   0  0  0  0  0  0  0  0  0  0  0  0
  118.1894  166.4857  141.3674 C   0  0  0  0  0  0  0  0  0  0  0  0
  116.7886  166.5219  141.2441 C   0  0  0  0  0  0  0  0  0  0  0  0
  116.0596  167.5600  141.7441 O   0  0  0  0  0  0  0  0  0  0  0  0
  114.9840  168.2166  142.2450 C   0  0  0  0  0  0  0  0  0  0  0  0
  113.9706  167.7333  143.0842 C   0  0  0  0  0  0  0  0  0  0  0  0
  112.9284  168.5226  143.4949 C   0  0  0  0  0  0  0  0  0  0  0  0
  112.8790  169.8507  143.0630 C   0  0  0  0  0  0  0  0  0  0  0  0
  111.7849  170.8016  143.4240 C   0  0  0  0  0  0  0  0  0  0  0  0
  110.4653  170.0953  143.4646 C   0  0  0  0  0  0  0  0  0  0  0  0
  110.5334  168.6944  143.4782 N   0  0  0  0  0  0  0  0  0  0  0  0
  110.5887  168.1334  142.1677 C   0  0  0  0  0  0  0  0  0  0  0  0
  113.8656  170.3986  142.2238 C   0  0  0  0  0  0  0  0  0  0  0  0
  114.8625  169.5555  141.8598 C   0  0  0  0  0  0  0  0  0  0  0  0
  115.8210  170.1709  141.0138 O   0  0  0  0  0  0  0  0  0  0  0  0
  116.1323  169.6784  139.7430 C   0  0  0  0  0  0  0  0  0  0  0  0
  116.1624  165.4444  140.5770 C   0  0  0  0  0  0  0  0  0  0  0  0
  114.8152  165.1322  140.2662 O   0  0  0  0  0  0  0  0  0  0  0  0
  114.7589  164.2048  139.2195 C   0  0  0  0  0  0  0  0  0  0  0  0
  115.9489  163.4552  139.4494 O   0  0  0  0  0  0  0  0  0  0  0  0
  116.8328  164.3706  140.0443 C   0  0  0  0  0  0  0  0  0  0  0  0
  118.2021  164.3388  140.1628 C   0  0  0  0  0  0  0  0  0  0  0  0
  118.2473  169.4710  145.0274 C   0  0  0  0  0  0  0  0  0  0  0  0
  117.5796  169.3834  146.2845 C   0  0  0  0  0  0  0  0  0  0  0  0
  114.4192  169.5508  148.6349 C   0  0  0  0  0  0  0  0  0  0  0  0
  115.2906  169.9610  149.6674 O   0  0  0  0  0  0  0  0  0  0  0  0
  116.1785  171.0371  149.5250 C   0  0  0  0  0  0  0  0  0  0  0  0
  113.1830  170.1852  148.6285 C   0  0  0  0  0  0  0  0  0  0  0  0
  112.3504  169.7798  147.6254 C   0  0  0  0  0  0  0  0  0  0  0  0
  1  2  1  0
  2  3  1  0
  3  4  2  0
  4  5  1  0
  5  6  1  0
  6  7  1  0
  7  8  2  0
  8  9  1  0
  9 10  2  0
 10 11  1  0
 11 12  1  0
 12 13  1  6
 13 14  1  0
 13 15  1  0
 15 16  1  0
 16 17  1  0
 17 18  2  0
 18 19  1  0
 19 20  1  0
 20 21  1  0
 21 22  2  0
 22 23  1  0
 23 24  2  0
 24 25  1  0
 25 26  1  0
 26 27  1  0
 27 28  1  0
 24 29  1  0
 29 30  2  0
 30 31  1  0
 31 32  1  0
 19 33  2  0
 33 34  1  0
 34 35  1  0
 35 36  1  0
 36 37  1  0
 37 38  2  0
 10 39  1  0
 39 40  2  0
  5 41  2  0
 41 42  1  0
 42 43  1  0
 41 44  1  0
 44 45  2  0
 23  1  1  0
 37 33  1  0
  1 27  1  6
 45  3  1  0
 40  7  1  0
 18 12  1  0
 30 21  1  0
 38 17  1  0
M  END
$$$$
