
     RDKit          3D

 45 52  0  0  0  0  0  0  0  0999 V2000
  189.7064  175.6664  126.7865 C   0  0  2  0  0  0  0  0  0  0  0  0
  188.5782  175.6806  125.8519 C   0  0  0  0  0  0  0  0  0  0  0  0
  187.4950  176.6819  125.8629 C   0  0  0  0  0  0  0  0  0  0  0  0
  187.0149  177.5000  126.8661 C   0  0  0  0  0  0  0  0  0  0  0  0
  186.0374  178.3931  126.5255 C   0  0  0  0  0  0  0  0  0  0  0  0
  185.4540  179.3730  127.4552 O   0  0  0  0  0  0  0  0  0  0  0  0
  186.5273  180.1879  128.1058 C   0  0  0  0  0  0  0  0  0  0  0  0
  187.0533  179.7372  129.2715 C   0  0  0  0  0  0  0  0  0  0  0  0
  188.1172  180.3839  129.9533 C   0  0  0  0  0  0  0  0  0  0  0  0
  188.6564  181.5376  129.4181 C   0  0  0  0  0  0  0  0  0  0  0  0
  189.9291  182.1650  129.9967 C   0  0  0  0  0  0  0  0  0  0  0  0
  190.0846  181.9211  131.4271 C   0  0  2  0  0  0  0  0  0  0  0  0
  190.6991  183.1496  131.9520 N   0  0  0  0  0  0  0  0  0  0  0  0
  189.7984  184.2715  131.7593 C   0  0  0  0  0  0  0  0  0  0  0  0
  191.2359  183.0763  133.2485 C   0  0  0  0  0  0  0  0  0  0  0  0
  190.3806  182.0944  134.0462 C   0  0  0  0  0  0  0  0  0  0  0  0
  190.7350  180.7761  133.3837 C   0  0  0  0  0  0  0  0  0  0  0  0
  190.6587  180.7182  131.9828 C   0  0  0  0  0  0  0  0  0  0  0  0
  191.0619  179.5013  131.4040 C   0  0  0  0  0  0  0  0  0  0  0  0
  191.0426  179.3180  130.0530 O   0  0  0  0  0  0  0  0  0  0  0  0
  190.9794  178.6510  128.8741 C   0  0  0  0  0  0  0  0  0  0  0  0
  190.2534  177.4952  128.5551 C   0  0  0  0  0  0  0  0  0  0  0  0
  190.3068  176.9231  127.3109 C   0  0  0  0  0  0  0  0  0  0  0  0
  191.1096  177.5145  126.3320 C   0  0  0  0  0  0  0  0  0  0  0  0
  191.2672  176.9737  124.9484 C   0  0  0  0  0  0  0  0  0  0  0  0
  191.2834  175.4767  124.9668 C   0  0  0  0  0  0  0  0  0  0  0  0
  190.8467  174.8853  126.1613 N   0  0  0  0  0  0  0  0  0  0  0  0
  191.8972  174.7280  127.1137 C   0  0  0  0  0  0  0  0  0  0  0  0
  191.8599  178.6767  126.5857 C   0  0  0  0  0  0  0  0  0  0  0  0
  191.7561  179.1818  127.8392 C   0  0  0  0  0  0  0  0  0  0  0  0
  192.5380  180.3507  128.0271 O   0  0  0  0  0  0  0  0  0  0  0  0
  192.1352  181.4030  128.8546 C   0  0  0  0  0  0  0  0  0  0  0  0
  191.4941  178.4743  132.2741 C   0  0  0  0  0  0  0  0  0  0  0  0
  191.9600  177.1507  132.0748 O   0  0  0  0  0  0  0  0  0  0  0  0
  192.6785  176.7134  133.1935 C   0  0  0  0  0  0  0  0  0  0  0  0
  192.0083  177.4080  134.2419 O   0  0  0  0  0  0  0  0  0  0  0  0
  191.5451  178.5905  133.6416 C   0  0  0  0  0  0  0  0  0  0  0  0
  191.1539  179.7819  134.2051 C   0  0  0  0  0  0  0  0  0  0  0  0
  188.0984  182.0046  128.2277 C   0  0  0  0  0  0  0  0  0  0  0  0
  187.0290  181.3211  127.5774 C   0  0  0  0  0  0  0  0  0  0  0  0
  185.5050  178.5058  125.2769 C   0  0  0  0  0  0  0  0  0  0  0  0
  184.4869  179.4242  124.9398 O   0  0  0  0  0  0  0  0  0  0  0  0
  183.1725  179.0261  124.6561 C   0  0  0  0  0  0  0  0  0  0  0  0
  185.9415  177.7074  124.2268 C   0  0  0  0  0  0  0  0  0  0  0  0
  186.9258  176.8244  124.5659 C   0  0  0  0  0  0  0  0  0  0  0  0
  1  2  1  0
  2  3  1  0
  3  4  2  0
  4  5  1  0
  5  6  1  0
  6  7  1  0
  7  8  2  0
  8  9  1  0
  9 10  2  0
 10 11  1  0
 11 12  1  0
 12 13  1  6
 13 14  1  0
 13 15  1  0
 15 16  1  0
 16 17  1  0
 17 18  2  0
 18 19  1  0
 19 20  1  0
 20 21  1  0
 21 22  2  0
 22 23  1  0
 23 24  2  0
 24 25  1  0
 25 26  1  0
 26 27  1  0
 27 28  1  0
 24 29  1  0
 29 30  2  0
 30 31  1  0
 31 32  1  0
 19 33  2  0
 33 34  1  0
 34 35  1  0
 35 36  1  0
 36 37  1  0
 37 38  2  0
 10 39  1  0
 39 40  2  0
  5 41  2  0
 41 42  1  0
 42 43  1  0
 41 44  1  0
 44 45  2  0
 23  1  1  0
 37 33  1  0
  1 27  1  6
 45  3  1  0
 40  7  1  0
 18 12  1  0
 30 21  1  0
 38 17  1  0
M  END
$$$$
