
     RDKit          3D

 45 52  0  0  0  0  0  0  0  0999 V2000
  185.8220  160.6203  134.1828 C   0  0  2  0  0  0  0  0  0  0  0  0
  187.0757  160.9085  133.4816 C   0  0  0  0  0  0  0  0  0  0  0  0
  188.1928  161.6862  134.0501 C   0  0  0  0  0  0  0  0  0  0  0  0
  188.2319  162.6310  135.0561 C   0  0  0  0  0  0  0  0  0  0  0  0
  189.4615  163.1137  135.4082 C   0  0  0  0  0  0  0  0  0  0  0  0
  189.6890  164.0812  136.4931 O   0  0  0  0  0  0  0  0  0  0  0  0
  189.0712  163.5999  137.7683 C   0  0  0  0  0  0  0  0  0  0  0  0
  187.7889  163.9542  138.0302 C   0  0  0  0  0  0  0  0  0  0  0  0
  187.0709  163.5114  139.1719 C   0  0  0  0  0  0  0  0  0  0  0  0
  187.6963  162.6773  140.0781 C   0  0  0  0  0  0  0  0  0  0  0  0
  186.9167  162.0091  141.2156 C   0  0  0  0  0  0  0  0  0  0  0  0
  185.7786  162.8026  141.6686 C   0  0  2  0  0  0  0  0  0  0  0  0
  185.7131  162.5696  143.1190 N   0  0  0  0  0  0  0  0  0  0  0  0
  186.9196  163.0696  143.7527 C   0  0  0  0  0  0  0  0  0  0  0  0
  184.5315  162.9713  143.7646 C   0  0  0  0  0  0  0  0  0  0  0  0
  184.0031  164.2033  143.0333 C   0  0  0  0  0  0  0  0  0  0  0  0
  183.5611  163.6044  141.7110 C   0  0  0  0  0  0  0  0  0  0  0  0
  184.4818  162.7892  141.0334 C   0  0  0  0  0  0  0  0  0  0  0  0
  184.0094  162.1979  139.8477 C   0  0  0  0  0  0  0  0  0  0  0  0
  184.8017  161.3784  139.0996 O   0  0  0  0  0  0  0  0  0  0  0  0
  185.2621  160.7345  137.9987 C   0  0  0  0  0  0  0  0  0  0  0  0
  185.2947  161.1780  136.6693 C   0  0  0  0  0  0  0  0  0  0  0  0
  185.7791  160.3961  135.6535 C   0  0  0  0  0  0  0  0  0  0  0  0
  186.2564  159.1182  135.9566 C   0  0  0  0  0  0  0  0  0  0  0  0
  186.7878  158.1659  134.9357 C   0  0  0  0  0  0  0  0  0  0  0  0
  186.0067  158.2688  133.6625 C   0  0  0  0  0  0  0  0  0  0  0  0
  185.1816  159.3978  133.5529 N   0  0  0  0  0  0  0  0  0  0  0  0
  183.8881  159.1909  134.1178 C   0  0  0  0  0  0  0  0  0  0  0  0
  186.2556  158.6145  137.2697 C   0  0  0  0  0  0  0  0  0  0  0  0
  185.7597  159.4460  138.2183 C   0  0  0  0  0  0  0  0  0  0  0  0
  185.7870  158.8760  139.5173 O   0  0  0  0  0  0  0  0  0  0  0  0
  186.6814  159.2952  140.5066 C   0  0  0  0  0  0  0  0  0  0  0  0
  182.6791  162.4796  139.4610 C   0  0  0  0  0  0  0  0  0  0  0  0
  181.8712  162.0851  138.3654 O   0  0  0  0  0  0  0  0  0  0  0  0
  180.5166  162.2596  138.6711 C   0  0  0  0  0  0  0  0  0  0  0  0
  180.5717  163.3888  139.5387 O   0  0  0  0  0  0  0  0  0  0  0  0
  181.8239  163.2896  140.1674 C   0  0  0  0  0  0  0  0  0  0  0  0
  182.2865  163.8637  141.3278 C   0  0  0  0  0  0  0  0  0  0  0  0
  189.0212  162.3313  139.8107 C   0  0  0  0  0  0  0  0  0  0  0  0
  189.7032  162.8006  138.6496 C   0  0  0  0  0  0  0  0  0  0  0  0
  190.6296  162.7359  134.8183 C   0  0  0  0  0  0  0  0  0  0  0  0
  191.8929  163.2505  135.1826 O   0  0  0  0  0  0  0  0  0  0  0  0
  192.0668  164.1436  136.2498 C   0  0  0  0  0  0  0  0  0  0  0  0
  190.6557  161.7941  133.7970 C   0  0  0  0  0  0  0  0  0  0  0  0
  189.4283  161.3045  133.4547 C   0  0  0  0  0  0  0  0  0  0  0  0
  1  2  1  0
  2  3  1  0
  3  4  2  0
  4  5  1  0
  5  6  1  0
  6  7  1  0
  7  8  2  0
  8  9  1  0
  9 10  2  0
 10 11  1  0
 11 12  1  0
 12 13  1  1
 13 14  1  0
 13 15  1  0
 15 16  1  0
 16 17  1  0
 17 18  2  0
 18 19  1  0
 19 20  1  0
 20 21  1  0
 21 22  2  0
 22 23  1  0
 23 24  2  0
 24 25  1  0
 25 26  1  0
 26 27  1  0
 27 28  1  0
 24 29  1  0
 29 30  2  0
 30 31  1  0
 31 32  1  0
 19 33  2  0
 33 34  1  0
 34 35  1  0
 35 36  1  0
 36 37  1  0
 37 38  2  0
 10 39  1  0
 39 40  2  0
  5 41  2  0
 41 42  1  0
 42 43  1  0
 41 44  1  0
 44 45  2  0
 23  1  1  0
 37 33  1  0
  1 27  1  6
 45  3  1  0
 40  7  1  0
 18 12  1  0
 30 21  1  0
 38 17  1  0
M  END
$$$$
