
     RDKit          3D

 45 52  0  0  0  0  0  0  0  0999 V2000
  210.3878  131.6684  131.7917 C   0  0  2  0  0  0  0  0  0  0  0  0
  211.4853  131.6939  132.7621 C   0  0  0  0  0  0  0  0  0  0  0  0
  211.3628  132.1742  134.1514 C   0  0  0  0  0  0  0  0  0  0  0  0
  210.4684  133.0430  134.7442 C   0  0  0  0  0  0  0  0  0  0  0  0
  210.5760  133.2198  136.0956 C   0  0  0  0  0  0  0  0  0  0  0  0
  209.6727  134.0648  136.8922 O   0  0  0  0  0  0  0  0  0  0  0  0
  208.2453  133.6835  136.6539 C   0  0  0  0  0  0  0  0  0  0  0  0
  207.5760  134.3078  135.6535 C   0  0  0  0  0  0  0  0  0  0  0  0
  206.2415  133.9923  135.2869 C   0  0  0  0  0  0  0  0  0  0  0  0
  205.5707  133.0014  135.9772 C   0  0  0  0  0  0  0  0  0  0  0  0
  204.2102  132.4806  135.5018 C   0  0  0  0  0  0  0  0  0  0  0  0
  203.4279  133.4917  134.7978 C   0  0  2  0  0  0  0  0  0  0  0  0
  202.0342  133.2197  135.1794 N   0  0  0  0  0  0  0  0  0  0  0  0
  201.8700  133.4068  136.6095 C   0  0  0  0  0  0  0  0  0  0  0  0
  201.0406  133.8515  134.4124 C   0  0  0  0  0  0  0  0  0  0  0  0
  201.5958  135.2004  133.9606 C   0  0  0  0  0  0  0  0  0  0  0  0
  202.6636  134.7725  132.9709 C   0  0  0  0  0  0  0  0  0  0  0  0
  203.5818  133.7987  133.3952 C   0  0  0  0  0  0  0  0  0  0  0  0
  204.5111  133.3794  132.4260 C   0  0  0  0  0  0  0  0  0  0  0  0
  205.4516  132.4335  132.7081 O   0  0  0  0  0  0  0  0  0  0  0  0
  206.6174  131.7482  132.6070 C   0  0  0  0  0  0  0  0  0  0  0  0
  207.8945  132.2274  132.2844 C   0  0  0  0  0  0  0  0  0  0  0  0
  208.9831  131.3989  132.2029 C   0  0  0  0  0  0  0  0  0  0  0  0
  208.8107  130.0347  132.4518 C   0  0  0  0  0  0  0  0  0  0  0  0
  209.9134  129.0300  132.3728 C   0  0  0  0  0  0  0  0  0  0  0  0
  210.8469  129.3598  131.2496 C   0  0  0  0  0  0  0  0  0  0  0  0
  210.7130  130.6498  130.7156 N   0  0  0  0  0  0  0  0  0  0  0  0
  209.7332  130.7180  129.6809 C   0  0  0  0  0  0  0  0  0  0  0  0
  207.5573  129.4904  132.7842 C   0  0  0  0  0  0  0  0  0  0  0  0
  206.5300  130.3726  132.8436 C   0  0  0  0  0  0  0  0  0  0  0  0
  205.2968  129.7578  133.1817 O   0  0  0  0  0  0  0  0  0  0  0  0
  204.3669  129.3528  132.2196 C   0  0  0  0  0  0  0  0  0  0  0  0
  204.4318  133.9708  131.1444 C   0  0  0  0  0  0  0  0  0  0  0  0
  205.1699  133.8153  129.9445 O   0  0  0  0  0  0  0  0  0  0  0  0
  204.4277  134.2792  128.8523 C   0  0  0  0  0  0  0  0  0  0  0  0
  203.6761  135.3296  129.4544 O   0  0  0  0  0  0  0  0  0  0  0  0
  203.5087  134.9234  130.7886 C   0  0  0  0  0  0  0  0  0  0  0  0
  202.5991  135.3293  131.7363 C   0  0  0  0  0  0  0  0  0  0  0  0
  206.2600  132.3757  137.0164 C   0  0  0  0  0  0  0  0  0  0  0  0
  207.6016  132.7260  137.3495 C   0  0  0  0  0  0  0  0  0  0  0  0
  211.5134  132.6120  136.8746 C   0  0  0  0  0  0  0  0  0  0  0  0
  211.6223  132.8116  138.2681 O   0  0  0  0  0  0  0  0  0  0  0  0
  212.8168  133.2127  138.8838 C   0  0  0  0  0  0  0  0  0  0  0  0
  212.4445  131.7319  136.3368 C   0  0  0  0  0  0  0  0  0  0  0  0
  212.3283  131.5476  134.9892 C   0  0  0  0  0  0  0  0  0  0  0  0
  1  2  1  0
  2  3  1  0
  3  4  2  0
  4  5  1  0
  5  6  1  0
  6  7  1  0
  7  8  2  0
  8  9  1  0
  9 10  2  0
 10 11  1  0
 11 12  1  0
 12 13  1  6
 13 14  1  0
 13 15  1  0
 15 16  1  0
 16 17  1  0
 17 18  2  0
 18 19  1  0
 19 20  1  0
 20 21  1  0
 21 22  2  0
 22 23  1  0
 23 24  2  0
 24 25  1  0
 25 26  1  0
 26 27  1  0
 27 28  1  0
 24 29  1  0
 29 30  2  0
 30 31  1  0
 31 32  1  0
 19 33  2  0
 33 34  1  0
 34 35  1  0
 35 36  1  0
 36 37  1  0
 37 38  2  0
 10 39  1  0
 39 40  2  0
  5 41  2  0
 41 42  1  0
 42 43  1  0
 41 44  1  0
 44 45  2  0
 23  1  1  0
 37 33  1  0
  1 27  1  6
 45  3  1  0
 40  7  1  0
 18 12  1  0
 30 21  1  0
 38 17  1  0
M  END
$$$$
