
     RDKit          3D

 45 52  0  0  0  0  0  0  0  0999 V2000
  196.3574  163.8581  119.0572 C   0  0  2  0  0  0  0  0  0  0  0  0
  195.7447  165.1819  118.9196 C   0  0  0  0  0  0  0  0  0  0  0  0
  194.2918  165.4367  118.9314 C   0  0  0  0  0  0  0  0  0  0  0  0
  193.2166  164.6191  118.6456 C   0  0  0  0  0  0  0  0  0  0  0  0
  191.9686  165.1442  118.8347 C   0  0  0  0  0  0  0  0  0  0  0  0
  190.7184  164.3957  118.6313 O   0  0  0  0  0  0  0  0  0  0  0  0
  190.7343  163.1187  119.4114 C   0  0  0  0  0  0  0  0  0  0  0  0
  191.2286  162.0088  118.8095 C   0  0  0  0  0  0  0  0  0  0  0  0
  191.3562  160.7544  119.4615 C   0  0  0  0  0  0  0  0  0  0  0  0
  190.9572  160.6374  120.7788 C   0  0  0  0  0  0  0  0  0  0  0  0
  191.2540  159.3728  121.5918 C   0  0  0  0  0  0  0  0  0  0  0  0
  191.3091  158.1678  120.7703 C   0  0  2  0  0  0  0  0  0  0  0  0
  190.7380  157.1104  121.6176 N   0  0  0  0  0  0  0  0  0  0  0  0
  189.3505  157.4151  121.9167 C   0  0  0  0  0  0  0  0  0  0  0  0
  190.9433  155.7874  121.1910 C   0  0  0  0  0  0  0  0  0  0  0  0
  190.9651  155.7939  119.6641 C   0  0  0  0  0  0  0  0  0  0  0  0
  192.2678  156.5192  119.3828 C   0  0  0  0  0  0  0  0  0  0  0  0
  192.4809  157.7400  120.0429 C   0  0  0  0  0  0  0  0  0  0  0  0
  193.7289  158.3453  119.8090 C   0  0  0  0  0  0  0  0  0  0  0  0
  194.0636  159.5295  120.3961 O   0  0  0  0  0  0  0  0  0  0  0  0
  194.6950  160.7181  120.5618 C   0  0  0  0  0  0  0  0  0  0  0  0
  195.1064  161.6390  119.5883 C   0  0  0  0  0  0  0  0  0  0  0  0
  195.7563  162.8005  119.9146 C   0  0  0  0  0  0  0  0  0  0  0  0
  196.0133  163.0726  121.2609 C   0  0  0  0  0  0  0  0  0  0  0  0
  196.7317  164.2918  121.7397 C   0  0  0  0  0  0  0  0  0  0  0  0
  197.8324  164.6600  120.7938 C   0  0  0  0  0  0  0  0  0  0  0  0
  197.7847  164.0302  119.5414 N   0  0  0  0  0  0  0  0  0  0  0  0
  198.4474  162.7669  119.5353 C   0  0  0  0  0  0  0  0  0  0  0  0
  195.6237  162.1929  122.2866 C   0  0  0  0  0  0  0  0  0  0  0  0
  194.9877  161.0655  121.8845 C   0  0  0  0  0  0  0  0  0  0  0  0
  194.6247  160.2235  122.9672 O   0  0  0  0  0  0  0  0  0  0  0  0
  195.1635  158.9455  123.1426 C   0  0  0  0  0  0  0  0  0  0  0  0
  194.6283  157.6782  118.9462 C   0  0  0  0  0  0  0  0  0  0  0  0
  195.9359  157.9643  118.4800 O   0  0  0  0  0  0  0  0  0  0  0  0
  196.5558  156.7966  118.0206 C   0  0  0  0  0  0  0  0  0  0  0  0
  195.4373  156.0658  117.5251 O   0  0  0  0  0  0  0  0  0  0  0  0
  194.3611  156.4822  118.3260 C   0  0  0  0  0  0  0  0  0  0  0  0
  193.1421  155.8905  118.5587 C   0  0  0  0  0  0  0  0  0  0  0  0
  190.4336  161.7793  121.3859 C   0  0  0  0  0  0  0  0  0  0  0  0
  190.3244  163.0197  120.6909 C   0  0  0  0  0  0  0  0  0  0  0  0
  191.7299  166.4149  119.2634 C   0  0  0  0  0  0  0  0  0  0  0  0
  190.4359  166.9502  119.4436 O   0  0  0  0  0  0  0  0  0  0  0  0
  189.9031  167.9399  118.6050 C   0  0  0  0  0  0  0  0  0  0  0  0
  192.7691  167.2876  119.5617 C   0  0  0  0  0  0  0  0  0  0  0  0
  194.0146  166.7578  119.3835 C   0  0  0  0  0  0  0  0  0  0  0  0
  1  2  1  0
  2  3  1  0
  3  4  2  0
  4  5  1  0
  5  6  1  0
  6  7  1  0
  7  8  2  0
  8  9  1  0
  9 10  2  0
 10 11  1  0
 11 12  1  0
 12 13  1  1
 13 14  1  0
 13 15  1  0
 15 16  1  0
 16 17  1  0
 17 18  2  0
 18 19  1  0
 19 20  1  0
 20 21  1  0
 21 22  2  0
 22 23  1  0
 23 24  2  0
 24 25  1  0
 25 26  1  0
 26 27  1  0
 27 28  1  0
 24 29  1  0
 29 30  2  0
 30 31  1  0
 31 32  1  0
 19 33  2  0
 33 34  1  0
 34 35  1  0
 35 36  1  0
 36 37  1  0
 37 38  2  0
 10 39  1  0
 39 40  2  0
  5 41  2  0
 41 42  1  0
 42 43  1  0
 41 44  1  0
 44 45  2  0
 23  1  1  0
 37 33  1  0
  1 27  1  1
 45  3  1  0
 40  7  1  0
 18 12  1  0
 30 21  1  0
 38 17  1  0
M  END
$$$$
