
     RDKit          3D

 45 52  0  0  0  0  0  0  0  0999 V2000
  193.4152  176.7374  119.8866 C   0  0  2  0  0  0  0  0  0  0  0  0
  192.7232  176.7953  118.5965 C   0  0  0  0  0  0  0  0  0  0  0  0
  191.2583  176.8556  118.4347 C   0  0  0  0  0  0  0  0  0  0  0  0
  190.2285  176.4651  119.2674 C   0  0  0  0  0  0  0  0  0  0  0  0
  188.9550  176.7377  118.8513 C   0  0  0  0  0  0  0  0  0  0  0  0
  187.7479  176.4402  119.6379 O   0  0  0  0  0  0  0  0  0  0  0  0
  187.8523  177.0298  121.0094 C   0  0  0  0  0  0  0  0  0  0  0  0
  188.4010  176.2716  121.9904 C   0  0  0  0  0  0  0  0  0  0  0  0
  188.6134  176.7367  123.3146 C   0  0  0  0  0  0  0  0  0  0  0  0
  188.2445  178.0272  123.6415 C   0  0  0  0  0  0  0  0  0  0  0  0
  188.6292  178.6488  124.9883 C   0  0  0  0  0  0  0  0  0  0  0  0
  188.7413  177.6633  126.0589 C   0  0  2  0  0  0  0  0  0  0  0  0
  188.2480  178.3558  127.2586 N   0  0  0  0  0  0  0  0  0  0  0  0
  186.8503  178.7071  127.0844 C   0  0  0  0  0  0  0  0  0  0  0  0
  188.5237  177.7431  128.4927 C   0  0  0  0  0  0  0  0  0  0  0  0
  188.5191  176.2326  128.2682 C   0  0  0  0  0  0  0  0  0  0  0  0
  189.7719  176.0467  127.4324 C   0  0  0  0  0  0  0  0  0  0  0  0
  189.9238  176.8725  126.3070 C   0  0  0  0  0  0  0  0  0  0  0  0
  191.1297  176.7169  125.5999 C   0  0  0  0  0  0  0  0  0  0  0  0
  191.4039  177.4641  124.4928 O   0  0  0  0  0  0  0  0  0  0  0  0
  191.9668  177.7924  123.3036 C   0  0  0  0  0  0  0  0  0  0  0  0
  192.3065  176.9569  122.2306 C   0  0  0  0  0  0  0  0  0  0  0  0
  192.8923  177.4400  121.0898 C   0  0  0  0  0  0  0  0  0  0  0  0
  193.1556  178.8092  120.9964 C   0  0  0  0  0  0  0  0  0  0  0  0
  193.8089  179.4510  119.8162 C   0  0  0  0  0  0  0  0  0  0  0  0
  194.8697  178.5581  119.2512 C   0  0  0  0  0  0  0  0  0  0  0  0
  194.8380  177.2292  119.6985 N   0  0  0  0  0  0  0  0  0  0  0  0
  195.5738  177.0372  120.9056 C   0  0  0  0  0  0  0  0  0  0  0  0
  192.8361  179.7021  122.0349 C   0  0  0  0  0  0  0  0  0  0  0  0
  192.2610  179.1486  123.1303 C   0  0  0  0  0  0  0  0  0  0  0  0
  191.9667  180.1031  124.1380 O   0  0  0  0  0  0  0  0  0  0  0  0
  191.1059  181.1839  123.9251 C   0  0  0  0  0  0  0  0  0  0  0  0
  192.0520  175.7601  126.0818 C   0  0  0  0  0  0  0  0  0  0  0  0
  193.3323  175.3285  125.6534 O   0  0  0  0  0  0  0  0  0  0  0  0
  194.0122  174.7019  126.7042 C   0  0  0  0  0  0  0  0  0  0  0  0
  192.9304  174.1166  127.4239 O   0  0  0  0  0  0  0  0  0  0  0  0
  191.8453  174.9778  127.1916 C   0  0  0  0  0  0  0  0  0  0  0  0
  190.6675  175.1340  127.8834 C   0  0  0  0  0  0  0  0  0  0  0  0
  187.6649  178.7954  122.6313 C   0  0  0  0  0  0  0  0  0  0  0  0
  187.4708  178.2855  121.3138 C   0  0  0  0  0  0  0  0  0  0  0  0
  188.6492  177.3454  117.6712 C   0  0  0  0  0  0  0  0  0  0  0  0
  187.3291  177.6111  117.2466 O   0  0  0  0  0  0  0  0  0  0  0  0
  186.2483  177.6844  118.1372 C   0  0  0  0  0  0  0  0  0  0  0  0
  189.6400  177.7564  116.7881 C   0  0  0  0  0  0  0  0  0  0  0  0
  190.9113  177.4940  117.2105 C   0  0  0  0  0  0  0  0  0  0  0  0
  1  2  1  0
  2  3  1  0
  3  4  2  0
  4  5  1  0
  5  6  1  0
  6  7  1  0
  7  8  2  0
  8  9  1  0
  9 10  2  0
 10 11  1  0
 11 12  1  0
 12 13  1  1
 13 14  1  0
 13 15  1  0
 15 16  1  0
 16 17  1  0
 17 18  2  0
 18 19  1  0
 19 20  1  0
 20 21  1  0
 21 22  2  0
 22 23  1  0
 23 24  2  0
 24 25  1  0
 25 26  1  0
 26 27  1  0
 27 28  1  0
 24 29  1  0
 29 30  2  0
 30 31  1  0
 31 32  1  0
 19 33  2  0
 33 34  1  0
 34 35  1  0
 35 36  1  0
 36 37  1  0
 37 38  2  0
 10 39  1  0
 39 40  2  0
  5 41  2  0
 41 42  1  0
 42 43  1  0
 41 44  1  0
 44 45  2  0
 23  1  1  0
 37 33  1  0
  1 27  1  6
 45  3  1  0
 40  7  1  0
 18 12  1  0
 30 21  1  0
 38 17  1  0
M  END
$$$$
