
     RDKit          3D

 45 52  0  0  0  0  0  0  0  0999 V2000
  198.9454  166.5435  130.6747 C   0  0  2  0  0  0  0  0  0  0  0  0
  198.8945  167.8278  129.9713 C   0  0  0  0  0  0  0  0  0  0  0  0
  197.6729  168.4153  129.3894 C   0  0  0  0  0  0  0  0  0  0  0  0
  196.4904  167.8393  128.9697 C   0  0  0  0  0  0  0  0  0  0  0  0
  195.5029  168.6848  128.5463 C   0  0  0  0  0  0  0  0  0  0  0  0
  194.1661  168.2441  128.1184 O   0  0  0  0  0  0  0  0  0  0  0  0
  193.5315  167.3863  129.1675 C   0  0  0  0  0  0  0  0  0  0  0  0
  193.7403  166.0477  129.1103 C   0  0  0  0  0  0  0  0  0  0  0  0
  193.2471  165.1352  130.0792 C   0  0  0  0  0  0  0  0  0  0  0  0
  192.5094  165.6172  131.1430 C   0  0  0  0  0  0  0  0  0  0  0  0
  192.1237  164.7140  132.3193 C   0  0  0  0  0  0  0  0  0  0  0  0
  191.9598  163.3161  131.9338 C   0  0  2  0  0  0  0  0  0  0  0  0
  190.8567  162.8232  132.7720 N   0  0  0  0  0  0  0  0  0  0  0  0
  189.6380  163.5461  132.4565 C   0  0  0  0  0  0  0  0  0  0  0  0
  190.6855  161.4296  132.8250 C   0  0  0  0  0  0  0  0  0  0  0  0
  191.0983  160.8628  131.4685 C   0  0  0  0  0  0  0  0  0  0  0  0
  192.5985  161.0898  131.4891 C   0  0  0  0  0  0  0  0  0  0  0  0
  193.0507  162.3764  131.8229 C   0  0  0  0  0  0  0  0  0  0  0  0
  194.4472  162.5269  131.8988 C   0  0  0  0  0  0  0  0  0  0  0  0
  195.0148  163.7240  132.2211 O   0  0  0  0  0  0  0  0  0  0  0  0
  195.9589  164.6960  132.2730 C   0  0  0  0  0  0  0  0  0  0  0  0
  196.9024  165.0587  131.3019 C   0  0  0  0  0  0  0  0  0  0  0  0
  197.8127  166.0616  131.5111 C   0  0  0  0  0  0  0  0  0  0  0  0
  197.7951  166.7428  132.7311 C   0  0  0  0  0  0  0  0  0  0  0  0
  198.7481  167.8372  133.0854 C   0  0  0  0  0  0  0  0  0  0  0  0
  200.1109  167.5467  132.5374 C   0  0  0  0  0  0  0  0  0  0  0  0
  200.1671  166.5290  131.5739 N   0  0  0  0  0  0  0  0  0  0  0  0
  200.3210  165.2332  132.1506 C   0  0  0  0  0  0  0  0  0  0  0  0
  196.8722  166.4309  133.7455 C   0  0  0  0  0  0  0  0  0  0  0  0
  196.0060  165.4271  133.4643 C   0  0  0  0  0  0  0  0  0  0  0  0
  195.1058  165.1639  134.5289 O   0  0  0  0  0  0  0  0  0  0  0  0
  193.7716  165.5811  134.5094 C   0  0  0  0  0  0  0  0  0  0  0  0
  195.2433  161.3891  131.6340 C   0  0  0  0  0  0  0  0  0  0  0  0
  196.6406  161.1528  131.6109 O   0  0  0  0  0  0  0  0  0  0  0  0
  196.9057  159.7848  131.7417 C   0  0  0  0  0  0  0  0  0  0  0  0
  195.7684  159.2193  131.0956 O   0  0  0  0  0  0  0  0  0  0  0  0
  194.7408  160.1527  131.3097 C   0  0  0  0  0  0  0  0  0  0  0  0
  193.3756  160.0069  131.2394 C   0  0  0  0  0  0  0  0  0  0  0  0
  192.2841  166.9935  131.1857 C   0  0  0  0  0  0  0  0  0  0  0  0
  192.8000  167.8730  130.1888 C   0  0  0  0  0  0  0  0  0  0  0  0
  195.6252  170.0405  128.4974 C   0  0  0  0  0  0  0  0  0  0  0  0
  194.6021  170.9030  128.0468 O   0  0  0  0  0  0  0  0  0  0  0  0
  193.8911  171.7490  128.9101 C   0  0  0  0  0  0  0  0  0  0  0  0
  196.7915  170.6793  128.9003 C   0  0  0  0  0  0  0  0  0  0  0  0
  197.7722  169.8343  129.3338 C   0  0  0  0  0  0  0  0  0  0  0  0
  1  2  1  0
  2  3  1  0
  3  4  2  0
  4  5  1  0
  5  6  1  0
  6  7  1  0
  7  8  2  0
  8  9  1  0
  9 10  2  0
 10 11  1  0
 11 12  1  0
 12 13  1  1
 13 14  1  0
 13 15  1  0
 15 16  1  0
 16 17  1  0
 17 18  2  0
 18 19  1  0
 19 20  1  0
 20 21  1  0
 21 22  2  0
 22 23  1  0
 23 24  2  0
 24 25  1  0
 25 26  1  0
 26 27  1  0
 27 28  1  0
 24 29  1  0
 29 30  2  0
 30 31  1  0
 31 32  1  0
 19 33  2  0
 33 34  1  0
 34 35  1  0
 35 36  1  0
 36 37  1  0
 37 38  2  0
 10 39  1  0
 39 40  2  0
  5 41  2  0
 41 42  1  0
 42 43  1  0
 41 44  1  0
 44 45  2  0
 23  1  1  0
 37 33  1  0
  1 27  1  1
 45  3  1  0
 40  7  1  0
 18 12  1  0
 30 21  1  0
 38 17  1  0
M  END
$$$$
