
     RDKit          3D

 45 52  0  0  0  0  0  0  0  0999 V2000
  155.3253  158.8300  119.6416 C   0  0  2  0  0  0  0  0  0  0  0  0
  154.5815  157.5784  119.8059 C   0  0  0  0  0  0  0  0  0  0  0  0
  153.1100  157.4754  119.8210 C   0  0  0  0  0  0  0  0  0  0  0  0
  152.1303  158.4030  120.1138 C   0  0  0  0  0  0  0  0  0  0  0  0
  150.8315  158.0079  119.9516 C   0  0  0  0  0  0  0  0  0  0  0  0
  149.6692  158.8841  120.1657 O   0  0  0  0  0  0  0  0  0  0  0  0
  149.8034  160.1439  119.3693 C   0  0  0  0  0  0  0  0  0  0  0  0
  150.4202  161.2032  119.9490 C   0  0  0  0  0  0  0  0  0  0  0  0
  150.6654  162.4305  119.2792 C   0  0  0  0  0  0  0  0  0  0  0  0
  150.2578  162.5737  117.9671 C   0  0  0  0  0  0  0  0  0  0  0  0
  150.6695  163.7918  117.1335 C   0  0  0  0  0  0  0  0  0  0  0  0
  150.8631  164.9936  117.9386 C   0  0  2  0  0  0  0  0  0  0  0  0
  150.3897  166.0951  117.0873 N   0  0  0  0  0  0  0  0  0  0  0  0
  148.9732  165.9325  116.8146 C   0  0  0  0  0  0  0  0  0  0  0  0
  150.7381  167.3943  117.4937 C   0  0  0  0  0  0  0  0  0  0  0  0
  150.7857  167.4023  119.0200 C   0  0  0  0  0  0  0  0  0  0  0  0
  152.0112  166.5490  119.2894 C   0  0  0  0  0  0  0  0  0  0  0  0
  152.0854  165.3056  118.6414 C   0  0  0  0  0  0  0  0  0  0  0  0
  153.2681  164.5769  118.8627 C   0  0  0  0  0  0  0  0  0  0  0  0
  153.4682  163.3580  118.2854 O   0  0  0  0  0  0  0  0  0  0  0  0
  153.9703  162.1087  118.1245 C   0  0  0  0  0  0  0  0  0  0  0  0
  154.3012  161.1608  119.1028 C   0  0  0  0  0  0  0  0  0  0  0  0
  154.8219  159.9348  118.7808 C   0  0  0  0  0  0  0  0  0  0  0  0
  155.0258  159.6227  117.4341 C   0  0  0  0  0  0  0  0  0  0  0  0
  155.6059  158.3306  116.9592 C   0  0  0  0  0  0  0  0  0  0  0  0
  156.6789  157.8607  117.8917 C   0  0  0  0  0  0  0  0  0  0  0  0
  156.7185  158.5057  119.1366 N   0  0  0  0  0  0  0  0  0  0  0  0
  157.5082  159.6936  119.1159 C   0  0  0  0  0  0  0  0  0  0  0  0
  154.7114  160.5269  116.4037 C   0  0  0  0  0  0  0  0  0  0  0  0
  154.2025  161.7184  116.8018 C   0  0  0  0  0  0  0  0  0  0  0  0
  153.9096  162.5815  115.7144 O   0  0  0  0  0  0  0  0  0  0  0  0
  152.6098  162.7849  115.2415 C   0  0  0  0  0  0  0  0  0  0  0  0
  154.2465  165.1567  119.7023 C   0  0  0  0  0  0  0  0  0  0  0  0
  155.5254  164.7418  120.1508 O   0  0  0  0  0  0  0  0  0  0  0  0
  156.2706  165.8439  120.5853 C   0  0  0  0  0  0  0  0  0  0  0  0
  155.2424  166.6920  121.0896 O   0  0  0  0  0  0  0  0  0  0  0  0
  154.1152  166.3806  120.3115 C   0  0  0  0  0  0  0  0  0  0  0  0
  152.9600  167.0927  120.0911 C   0  0  0  0  0  0  0  0  0  0  0  0
  149.6084  161.4857  117.3832 C   0  0  0  0  0  0  0  0  0  0  0  0
  149.3836  160.2709  118.0955 C   0  0  0  0  0  0  0  0  0  0  0  0
  150.4554  156.7642  119.5430 C   0  0  0  0  0  0  0  0  0  0  0  0
  149.1100  156.3639  119.3906 O   0  0  0  0  0  0  0  0  0  0  0  0
  148.3050  156.8049  118.3303 C   0  0  0  0  0  0  0  0  0  0  0  0
  151.3934  155.7853  119.2390 C   0  0  0  0  0  0  0  0  0  0  0  0
  152.6899  156.1852  119.3902 C   0  0  0  0  0  0  0  0  0  0  0  0
  1  2  1  0
  2  3  1  0
  3  4  2  0
  4  5  1  0
  5  6  1  0
  6  7  1  0
  7  8  2  0
  8  9  1  0
  9 10  2  0
 10 11  1  0
 11 12  1  0
 12 13  1  6
 13 14  1  0
 13 15  1  0
 15 16  1  0
 16 17  1  0
 17 18  2  0
 18 19  1  0
 19 20  1  0
 20 21  1  0
 21 22  2  0
 22 23  1  0
 23 24  2  0
 24 25  1  0
 25 26  1  0
 26 27  1  0
 27 28  1  0
 24 29  1  0
 29 30  2  0
 30 31  1  0
 31 32  1  0
 19 33  2  0
 33 34  1  0
 34 35  1  0
 35 36  1  0
 36 37  1  0
 37 38  2  0
 10 39  1  0
 39 40  2  0
  5 41  2  0
 41 42  1  0
 42 43  1  0
 41 44  1  0
 44 45  2  0
 23  1  1  0
 37 33  1  0
  1 27  1  6
 45  3  1  0
 40  7  1  0
 18 12  1  0
 30 21  1  0
 38 17  1  0
M  END
$$$$
