
     RDKit          3D

 45 52  0  0  0  0  0  0  0  0999 V2000
  126.5902  159.7358  146.4332 C   0  0  2  0  0  0  0  0  0  0  0  0
  125.8179  160.9135  146.8373 C   0  0  0  0  0  0  0  0  0  0  0  0
  124.3557  160.9290  147.0312 C   0  0  0  0  0  0  0  0  0  0  0  0
  123.3566  160.1207  146.5264 C   0  0  0  0  0  0  0  0  0  0  0  0
  122.0852  160.3512  146.9730 C   0  0  0  0  0  0  0  0  0  0  0  0
  120.9146  159.5509  146.5808 O   0  0  0  0  0  0  0  0  0  0  0  0
  121.1636  158.0956  146.8250 C   0  0  0  0  0  0  0  0  0  0  0  0
  121.7125  157.3648  145.8234 C   0  0  0  0  0  0  0  0  0  0  0  0
  122.0550  155.9932  145.9506 C   0  0  0  0  0  0  0  0  0  0  0  0
  121.8208  155.3499  147.1504 C   0  0  0  0  0  0  0  0  0  0  0  0
  122.3493  153.9357  147.4126 C   0  0  0  0  0  0  0  0  0  0  0  0
  122.4511  153.1318  146.1988 C   0  0  2  0  0  0  0  0  0  0  0  0
  122.1030  151.7675  146.6227 N   0  0  0  0  0  0  0  0  0  0  0  0
  120.7315  151.7346  147.0974 C   0  0  0  0  0  0  0  0  0  0  0  0
  122.4104  150.7344  145.7213 C   0  0  0  0  0  0  0  0  0  0  0  0
  122.2619  151.2960  144.3091 C   0  0  0  0  0  0  0  0  0  0  0  0
  123.4333  152.2581  144.2407 C   0  0  0  0  0  0  0  0  0  0  0  0
  123.5765  153.1745  145.2949 C   0  0  0  0  0  0  0  0  0  0  0  0
  124.7129  154.0008  145.2290 C   0  0  0  0  0  0  0  0  0  0  0  0
  124.9722  154.9280  146.1944 O   0  0  0  0  0  0  0  0  0  0  0  0
  125.4771  156.0555  146.7536 C   0  0  0  0  0  0  0  0  0  0  0  0
  125.6694  157.3161  146.1716 C   0  0  0  0  0  0  0  0  0  0  0  0
  126.2136  158.3633  146.8681 C   0  0  0  0  0  0  0  0  0  0  0  0
  126.5853  158.1648  148.2004 C   0  0  0  0  0  0  0  0  0  0  0  0
  127.2074  159.2200  149.0555 C   0  0  0  0  0  0  0  0  0  0  0  0
  128.1467  160.0639  148.2509 C   0  0  0  0  0  0  0  0  0  0  0  0
  128.0332  159.9302  146.8593 N   0  0  0  0  0  0  0  0  0  0  0  0
  128.8319  158.8675  146.3417 C   0  0  0  0  0  0  0  0  0  0  0  0
  126.4157  156.9263  148.8448 C   0  0  0  0  0  0  0  0  0  0  0  0
  125.8729  155.9400  148.0900 C   0  0  0  0  0  0  0  0  0  0  0  0
  125.7314  154.7197  148.7997 O   0  0  0  0  0  0  0  0  0  0  0  0
  125.4241  153.5108  148.1682 C   0  0  0  0  0  0  0  0  0  0  0  0
  125.5817  153.8319  144.1267 C   0  0  0  0  0  0  0  0  0  0  0  0
  126.7879  154.4572  143.7229 O   0  0  0  0  0  0  0  0  0  0  0  0
  127.4832  153.6402  142.8241 C   0  0  0  0  0  0  0  0  0  0  0  0
  126.4081  152.9814  142.1600 O   0  0  0  0  0  0  0  0  0  0  0  0
  125.3867  152.9158  143.1221 C   0  0  0  0  0  0  0  0  0  0  0  0
  124.2772  152.1068  143.1902 C   0  0  0  0  0  0  0  0  0  0  0  0
  121.2399  156.1039  148.1705 C   0  0  0  0  0  0  0  0  0  0  0  0
  120.9123  157.4810  147.9971 C   0  0  0  0  0  0  0  0  0  0  0  0
  121.7511  161.3304  147.8589 C   0  0  0  0  0  0  0  0  0  0  0  0
  120.4321  161.5666  148.3039 O   0  0  0  0  0  0  0  0  0  0  0  0
  119.4788  162.2363  147.5233 C   0  0  0  0  0  0  0  0  0  0  0  0
  122.7096  162.1795  148.3981 C   0  0  0  0  0  0  0  0  0  0  0  0
  123.9802  161.9404  147.9600 C   0  0  0  0  0  0  0  0  0  0  0  0
  1  2  1  0
  2  3  1  0
  3  4  2  0
  4  5  1  0
  5  6  1  0
  6  7  1  0
  7  8  2  0
  8  9  1  0
  9 10  2  0
 10 11  1  0
 11 12  1  0
 12 13  1  1
 13 14  1  0
 13 15  1  0
 15 16  1  0
 16 17  1  0
 17 18  2  0
 18 19  1  0
 19 20  1  0
 20 21  1  0
 21 22  2  0
 22 23  1  0
 23 24  2  0
 24 25  1  0
 25 26  1  0
 26 27  1  0
 27 28  1  0
 24 29  1  0
 29 30  2  0
 30 31  1  0
 31 32  1  0
 19 33  2  0
 33 34  1  0
 34 35  1  0
 35 36  1  0
 36 37  1  0
 37 38  2  0
 10 39  1  0
 39 40  2  0
  5 41  2  0
 41 42  1  0
 42 43  1  0
 41 44  1  0
 44 45  2  0
 23  1  1  0
 37 33  1  0
  1 27  1  1
 45  3  1  0
 40  7  1  0
 18 12  1  0
 30 21  1  0
 38 17  1  0
M  END
$$$$
