
     RDKit          3D

 45 52  0  0  0  0  0  0  0  0999 V2000
  158.8039  201.7220  159.0548 C   0  0  2  0  0  0  0  0  0  0  0  0
  159.9467  202.1982  159.8385 C   0  0  0  0  0  0  0  0  0  0  0  0
  160.7963  201.3400  160.6856 C   0  0  0  0  0  0  0  0  0  0  0  0
  160.5538  200.1221  161.2890 C   0  0  0  0  0  0  0  0  0  0  0  0
  161.5969  199.5383  161.9524 C   0  0  0  0  0  0  0  0  0  0  0  0
  161.5276  198.2206  162.6031 O   0  0  0  0  0  0  0  0  0  0  0  0
  161.0365  197.1826  161.6435 C   0  0  0  0  0  0  0  0  0  0  0  0
  159.7007  196.9621  161.5698 C   0  0  0  0  0  0  0  0  0  0  0  0
  159.1056  196.0519  160.6574 C   0  0  0  0  0  0  0  0  0  0  0  0
  159.9147  195.3407  159.7926 C   0  0  0  0  0  0  0  0  0  0  0  0
  159.3220  194.4998  158.6570 C   0  0  0  0  0  0  0  0  0  0  0  0
  158.0008  193.9665  158.9733 C   0  0  2  0  0  0  0  0  0  0  0  0
  157.9692  192.6417  158.3360 N   0  0  0  0  0  0  0  0  0  0  0  0
  158.9792  191.7852  158.9308 C   0  0  0  0  0  0  0  0  0  0  0  0
  156.7089  192.0305  158.2248 C   0  0  0  0  0  0  0  0  0  0  0  0
  155.8806  192.4598  159.4338 C   0  0  0  0  0  0  0  0  0  0  0  0
  155.6483  193.9294  159.1356 C   0  0  0  0  0  0  0  0  0  0  0  0
  156.7713  194.7051  158.8062 C   0  0  0  0  0  0  0  0  0  0  0  0
  156.5045  196.0444  158.4690 C   0  0  0  0  0  0  0  0  0  0  0  0
  157.5068  196.9014  158.1224 O   0  0  0  0  0  0  0  0  0  0  0  0
  158.1497  198.0830  157.9518 C   0  0  0  0  0  0  0  0  0  0  0  0
  158.0895  199.2394  158.7417 C   0  0  0  0  0  0  0  0  0  0  0  0
  158.7913  200.3733  158.4258 C   0  0  0  0  0  0  0  0  0  0  0  0
  159.5924  200.3720  157.2808 C   0  0  0  0  0  0  0  0  0  0  0  0
  160.3860  201.5510  156.8206 C   0  0  0  0  0  0  0  0  0  0  0  0
  159.6348  202.8217  157.0713 C   0  0  0  0  0  0  0  0  0  0  0  0
  158.5356  202.7100  157.9354 N   0  0  0  0  0  0  0  0  0  0  0  0
  157.3354  202.3472  157.2549 C   0  0  0  0  0  0  0  0  0  0  0  0
  159.6999  199.2439  156.4478 C   0  0  0  0  0  0  0  0  0  0  0  0
  158.9751  198.1627  156.8255 C   0  0  0  0  0  0  0  0  0  0  0  0
  159.1280  197.0629  155.9422 O   0  0  0  0  0  0  0  0  0  0  0  0
  159.3257  197.2213  154.5673 C   0  0  0  0  0  0  0  0  0  0  0  0
  155.1568  196.4702  158.4969 C   0  0  0  0  0  0  0  0  0  0  0  0
  154.5117  197.7039  158.2308 O   0  0  0  0  0  0  0  0  0  0  0  0
  153.1544  197.4955  157.9600 C   0  0  0  0  0  0  0  0  0  0  0  0
  152.8801  196.3605  158.7768 O   0  0  0  0  0  0  0  0  0  0  0  0
  154.0976  195.6620  158.8302 C   0  0  0  0  0  0  0  0  0  0  0  0
  154.3602  194.3524  159.1561 C   0  0  0  0  0  0  0  0  0  0  0  0
  161.2893  195.5603  159.8864 C   0  0  0  0  0  0  0  0  0  0  0  0
  161.8430  196.4856  160.8196 C   0  0  0  0  0  0  0  0  0  0  0  0
  162.8365  200.0910  162.0666 C   0  0  0  0  0  0  0  0  0  0  0  0
  163.9031  199.4838  162.7648 O   0  0  0  0  0  0  0  0  0  0  0  0
  165.0712  200.1772  163.1132 C   0  0  0  0  0  0  0  0  0  0  0  0
  163.1413  201.3164  161.4869 C   0  0  0  0  0  0  0  0  0  0  0  0
  162.1019  201.8924  160.8150 C   0  0  0  0  0  0  0  0  0  0  0  0
  1  2  1  0
  2  3  1  0
  3  4  2  0
  4  5  1  0
  5  6  1  0
  6  7  1  0
  7  8  2  0
  8  9  1  0
  9 10  2  0
 10 11  1  0
 11 12  1  0
 12 13  1  6
 13 14  1  0
 13 15  1  0
 15 16  1  0
 16 17  1  0
 17 18  2  0
 18 19  1  0
 19 20  1  0
 20 21  1  0
 21 22  2  0
 22 23  1  0
 23 24  2  0
 24 25  1  0
 25 26  1  0
 26 27  1  0
 27 28  1  0
 24 29  1  0
 29 30  2  0
 30 31  1  0
 31 32  1  0
 19 33  2  0
 33 34  1  0
 34 35  1  0
 35 36  1  0
 36 37  1  0
 37 38  2  0
 10 39  1  0
 39 40  2  0
  5 41  2  0
 41 42  1  0
 42 43  1  0
 41 44  1  0
 44 45  2  0
 23  1  1  0
 37 33  1  0
  1 27  1  6
 45  3  1  0
 40  7  1  0
 18 12  1  0
 30 21  1  0
 38 17  1  0
M  END
$$$$
