
     RDKit          3D

 45 52  0  0  0  0  0  0  0  0999 V2000
  128.1419  136.2909  126.8665 C   0  0  2  0  0  0  0  0  0  0  0  0
  129.2441  136.6333  125.9641 C   0  0  0  0  0  0  0  0  0  0  0  0
  130.3298  137.5773  126.2898 C   0  0  0  0  0  0  0  0  0  0  0  0
  130.3962  138.6200  127.1923 C   0  0  0  0  0  0  0  0  0  0  0  0
  131.5974  139.2615  127.3139 C   0  0  0  0  0  0  0  0  0  0  0  0
  131.8572  140.3544  128.2640 O   0  0  0  0  0  0  0  0  0  0  0  0
  131.4824  139.9463  129.6541 C   0  0  0  0  0  0  0  0  0  0  0  0
  130.2158  140.1909  130.0719 C   0  0  0  0  0  0  0  0  0  0  0  0
  129.7194  139.7968  131.3419 C   0  0  0  0  0  0  0  0  0  0  0  0
  130.5576  139.1303  132.2145 C   0  0  0  0  0  0  0  0  0  0  0  0
  130.0265  138.5063  133.5094 C   0  0  0  0  0  0  0  0  0  0  0  0
  128.8766  139.2201  134.0555 C   0  0  2  0  0  0  0  0  0  0  0  0
  129.0399  139.1330  135.5142 N   0  0  0  0  0  0  0  0  0  0  0  0
  130.2552  139.8182  135.9152 C   0  0  0  0  0  0  0  0  0  0  0  0
  127.9199  139.4748  136.2908 C   0  0  0  0  0  0  0  0  0  0  0  0
  127.1544  140.5630  135.5413 C   0  0  0  0  0  0  0  0  0  0  0  0
  126.6075  139.7879  134.3570 C   0  0  0  0  0  0  0  0  0  0  0  0
  127.5152  139.0068  133.6239 C   0  0  0  0  0  0  0  0  0  0  0  0
  126.9563  138.2502  132.5780 C   0  0  0  0  0  0  0  0  0  0  0  0
  127.7285  137.4441  131.7950 O   0  0  0  0  0  0  0  0  0  0  0  0
  128.1048  136.7408  130.6984 C   0  0  0  0  0  0  0  0  0  0  0  0
  127.9012  137.0453  129.3454 C   0  0  0  0  0  0  0  0  0  0  0  0
  128.3291  136.2169  128.3411 C   0  0  0  0  0  0  0  0  0  0  0  0
  128.9906  135.0337  128.6805 C   0  0  0  0  0  0  0  0  0  0  0  0
  129.4840  134.0410  127.6792 C   0  0  0  0  0  0  0  0  0  0  0  0
  128.5279  133.9301  126.5323 C   0  0  0  0  0  0  0  0  0  0  0  0
  127.5688  134.9500  126.4483 N   0  0  0  0  0  0  0  0  0  0  0  0
  126.3989  134.6698  127.2153 C   0  0  0  0  0  0  0  0  0  0  0  0
  129.2302  134.6713  130.0181 C   0  0  0  0  0  0  0  0  0  0  0  0
  128.7759  135.5406  130.9535 C   0  0  0  0  0  0  0  0  0  0  0  0
  129.0490  135.1140  132.2788 O   0  0  0  0  0  0  0  0  0  0  0  0
  128.0408  134.7593  133.1801 C   0  0  0  0  0  0  0  0  0  0  0  0
  125.5616  138.3508  132.3704 C   0  0  0  0  0  0  0  0  0  0  0  0
  124.6621  137.7635  131.4459 O   0  0  0  0  0  0  0  0  0  0  0  0
  123.3516  137.8274  131.9333 C   0  0  0  0  0  0  0  0  0  0  0  0
  123.3930  139.0399  132.6809 O   0  0  0  0  0  0  0  0  0  0  0  0
  124.7230  139.1366  133.1225 C   0  0  0  0  0  0  0  0  0  0  0  0
  125.2707  139.8726  134.1464 C   0  0  0  0  0  0  0  0  0  0  0  0
  131.8643  138.8976  131.7843 C   0  0  0  0  0  0  0  0  0  0  0  0
  132.3195  139.3123  130.4980 C   0  0  0  0  0  0  0  0  0  0  0  0
  132.7091  138.9476  126.5922 C   0  0  0  0  0  0  0  0  0  0  0  0
  133.9413  139.6254  126.7180 O   0  0  0  0  0  0  0  0  0  0  0  0
  134.9975  139.1358  127.4999 C   0  0  0  0  0  0  0  0  0  0  0  0
  132.7043  137.9131  125.6647 C   0  0  0  0  0  0  0  0  0  0  0  0
  131.5075  137.2660  125.5530 C   0  0  0  0  0  0  0  0  0  0  0  0
  1  2  1  0
  2  3  1  0
  3  4  2  0
  4  5  1  0
  5  6  1  0
  6  7  1  0
  7  8  2  0
  8  9  1  0
  9 10  2  0
 10 11  1  0
 11 12  1  0
 12 13  1  1
 13 14  1  0
 13 15  1  0
 15 16  1  0
 16 17  1  0
 17 18  2  0
 18 19  1  0
 19 20  1  0
 20 21  1  0
 21 22  2  0
 22 23  1  0
 23 24  2  0
 24 25  1  0
 25 26  1  0
 26 27  1  0
 27 28  1  0
 24 29  1  0
 29 30  2  0
 30 31  1  0
 31 32  1  0
 19 33  2  0
 33 34  1  0
 34 35  1  0
 35 36  1  0
 36 37  1  0
 37 38  2  0
 10 39  1  0
 39 40  2  0
  5 41  2  0
 41 42  1  0
 42 43  1  0
 41 44  1  0
 44 45  2  0
 23  1  1  0
 37 33  1  0
  1 27  1  6
 45  3  1  0
 40  7  1  0
 18 12  1  0
 30 21  1  0
 38 17  1  0
M  END
$$$$
