
     RDKit          3D

 45 52  0  0  0  0  0  0  0  0999 V2000
  175.4425  140.7236  126.7118 C   0  0  2  0  0  0  0  0  0  0  0  0
  174.3371  141.4322  127.3619 C   0  0  0  0  0  0  0  0  0  0  0  0
  174.0069  142.8524  127.1384 C   0  0  0  0  0  0  0  0  0  0  0  0
  174.7739  143.9120  126.6968 C   0  0  0  0  0  0  0  0  0  0  0  0
  174.1366  145.1078  126.5153 C   0  0  0  0  0  0  0  0  0  0  0  0
  174.7893  146.3214  125.9998 O   0  0  0  0  0  0  0  0  0  0  0  0
  175.4809  146.0392  124.7031 C   0  0  0  0  0  0  0  0  0  0  0  0
  176.7750  145.6367  124.7440 C   0  0  0  0  0  0  0  0  0  0  0  0
  177.5214  145.2785  123.5908 C   0  0  0  0  0  0  0  0  0  0  0  0
  176.9151  145.3405  122.3512 C   0  0  0  0  0  0  0  0  0  0  0  0
  177.5997  144.7790  121.1005 C   0  0  0  0  0  0  0  0  0  0  0  0
  179.0558  144.8489  121.1687 C   0  0  2  0  0  0  0  0  0  0  0  0
  179.4823  145.1327  119.7904 N   0  0  0  0  0  0  0  0  0  0  0  0
  178.9665  146.4234  119.3715 C   0  0  0  0  0  0  0  0  0  0  0  0
  180.8472  144.9547  119.5083 C   0  0  0  0  0  0  0  0  0  0  0  0
  181.6281  145.3016  120.7740 C   0  0  0  0  0  0  0  0  0  0  0  0
  181.2482  144.1524  121.6891 C   0  0  0  0  0  0  0  0  0  0  0  0
  179.8811  143.8625  121.8255 C   0  0  0  0  0  0  0  0  0  0  0  0
  179.5753  142.7475  122.6266 C   0  0  0  0  0  0  0  0  0  0  0  0
  178.2859  142.3552  122.8333 O   0  0  0  0  0  0  0  0  0  0  0  0
  177.2311  141.7774  123.4595 C   0  0  0  0  0  0  0  0  0  0  0  0
  176.9746  141.6702  124.8334 C   0  0  0  0  0  0  0  0  0  0  0  0
  175.8617  141.0340  125.3180 C   0  0  0  0  0  0  0  0  0  0  0  0
  174.9559  140.4777  124.4109 C   0  0  0  0  0  0  0  0  0  0  0  0
  173.7205  139.7421  124.8159 C   0  0  0  0  0  0  0  0  0  0  0  0
  173.9725  138.9265  126.0459 C   0  0  0  0  0  0  0  0  0  0  0  0
  175.1510  139.2352  126.7410 N   0  0  0  0  0  0  0  0  0  0  0  0
  176.2824  138.5167  126.2523 C   0  0  0  0  0  0  0  0  0  0  0  0
  175.1521  140.5537  123.0204 C   0  0  0  0  0  0  0  0  0  0  0  0
  176.2758  141.1968  122.6192 C   0  0  0  0  0  0  0  0  0  0  0  0
  176.4122  141.2356  121.2075 O   0  0  0  0  0  0  0  0  0  0  0  0
  177.2129  142.1761  120.5525 C   0  0  0  0  0  0  0  0  0  0  0  0
  180.6548  142.0428  123.2067 C   0  0  0  0  0  0  0  0  0  0  0  0
  180.7456  140.9063  124.0487 O   0  0  0  0  0  0  0  0  0  0  0  0
  182.0251  140.3442  123.9723 C   0  0  0  0  0  0  0  0  0  0  0  0
  182.8225  141.5017  123.7377 O   0  0  0  0  0  0  0  0  0  0  0  0
  181.9762  142.3770  123.0373 C   0  0  0  0  0  0  0  0  0  0  0  0
  182.2730  143.4651  122.2511 C   0  0  0  0  0  0  0  0  0  0  0  0
  175.5888  145.7722  122.3156 C   0  0  0  0  0  0  0  0  0  0  0  0
  174.8779  146.1221  123.5013 C   0  0  0  0  0  0  0  0  0  0  0  0
  172.8128  145.3144  126.7607 C   0  0  0  0  0  0  0  0  0  0  0  0
  172.1679  146.5576  126.5808 O   0  0  0  0  0  0  0  0  0  0  0  0
  171.1407  146.7485  125.6454 C   0  0  0  0  0  0  0  0  0  0  0  0
  171.9896  144.2901  127.2119 C   0  0  0  0  0  0  0  0  0  0  0  0
  172.6251  143.0938  127.3813 C   0  0  0  0  0  0  0  0  0  0  0  0
  1  2  1  0
  2  3  1  0
  3  4  2  0
  4  5  1  0
  5  6  1  0
  6  7  1  0
  7  8  2  0
  8  9  1  0
  9 10  2  0
 10 11  1  0
 11 12  1  0
 12 13  1  6
 13 14  1  0
 13 15  1  0
 15 16  1  0
 16 17  1  0
 17 18  2  0
 18 19  1  0
 19 20  1  0
 20 21  1  0
 21 22  2  0
 22 23  1  0
 23 24  2  0
 24 25  1  0
 25 26  1  0
 26 27  1  0
 27 28  1  0
 24 29  1  0
 29 30  2  0
 30 31  1  0
 31 32  1  0
 19 33  2  0
 33 34  1  0
 34 35  1  0
 35 36  1  0
 36 37  1  0
 37 38  2  0
 10 39  1  0
 39 40  2  0
  5 41  2  0
 41 42  1  0
 42 43  1  0
 41 44  1  0
 44 45  2  0
 23  1  1  0
 37 33  1  0
  1 27  1  6
 45  3  1  0
 40  7  1  0
 18 12  1  0
 30 21  1  0
 38 17  1  0
M  END
$$$$
