
     RDKit          3D

 45 52  0  0  0  0  0  0  0  0999 V2000
  191.3799  163.4595  124.3607 C   0  0  2  0  0  0  0  0  0  0  0  0
  190.7694  164.7395  123.9925 C   0  0  0  0  0  0  0  0  0  0  0  0
  190.1614  165.0298  122.6803 C   0  0  0  0  0  0  0  0  0  0  0  0
  190.3566  164.4648  121.4358 C   0  0  0  0  0  0  0  0  0  0  0  0
  189.5616  164.9131  120.4178 C   0  0  0  0  0  0  0  0  0  0  0  0
  189.5994  164.3828  119.0460 O   0  0  0  0  0  0  0  0  0  0  0  0
  189.4383  162.8950  119.0500 C   0  0  0  0  0  0  0  0  0  0  0  0
  190.5561  162.1319  119.1315 C   0  0  0  0  0  0  0  0  0  0  0  0
  190.5339  160.7146  119.2072 C   0  0  0  0  0  0  0  0  0  0  0  0
  189.3179  160.0593  119.1948 C   0  0  0  0  0  0  0  0  0  0  0  0
  189.2202  158.5558  119.4743 C   0  0  0  0  0  0  0  0  0  0  0  0
  190.4121  157.8215  119.0619 C   0  0  2  0  0  0  0  0  0  0  0  0
  189.9064  156.5292  118.5758 N   0  0  0  0  0  0  0  0  0  0  0  0
  189.0559  156.7376  117.4180 C   0  0  0  0  0  0  0  0  0  0  0  0
  190.8587  155.5115  118.3974 C   0  0  0  0  0  0  0  0  0  0  0  0
  192.1676  156.1746  117.9742 C   0  0  0  0  0  0  0  0  0  0  0  0
  192.5708  156.8906  119.2498 C   0  0  0  0  0  0  0  0  0  0  0  0
  191.6025  157.6965  119.8698 C   0  0  0  0  0  0  0  0  0  0  0  0
  191.9934  158.2863  121.0854 C   0  0  0  0  0  0  0  0  0  0  0  0
  191.1435  159.0853  121.7914 O   0  0  0  0  0  0  0  0  0  0  0  0
  190.7535  160.0565  122.6536 C   0  0  0  0  0  0  0  0  0  0  0  0
  191.3656  161.2873  122.9278 C   0  0  0  0  0  0  0  0  0  0  0  0
  190.8554  162.1640  123.8493 C   0  0  0  0  0  0  0  0  0  0  0  0
  189.6873  161.8173  124.5334 C   0  0  0  0  0  0  0  0  0  0  0  0
  189.0478  162.6771  125.5743 C   0  0  0  0  0  0  0  0  0  0  0  0
  190.0890  163.3668  126.4001 C   0  0  0  0  0  0  0  0  0  0  0  0
  191.3885  163.3412  125.8730 N   0  0  0  0  0  0  0  0  0  0  0  0
  192.1154  162.1754  126.2574 C   0  0  0  0  0  0  0  0  0  0  0  0
  189.0220  160.5999  124.3026 C   0  0  0  0  0  0  0  0  0  0  0  0
  189.5883  159.7861  123.3785 C   0  0  0  0  0  0  0  0  0  0  0  0
  188.8686  158.5770  123.1963 O   0  0  0  0  0  0  0  0  0  0  0  0
  189.4397  157.4387  122.6196 C   0  0  0  0  0  0  0  0  0  0  0  0
  193.2997  158.0163  121.5535 C   0  0  0  0  0  0  0  0  0  0  0  0
  194.0343  158.4160  122.6979 O   0  0  0  0  0  0  0  0  0  0  0  0
  195.0961  157.5336  122.9279 C   0  0  0  0  0  0  0  0  0  0  0  0
  195.4216  157.1392  121.5978 O   0  0  0  0  0  0  0  0  0  0  0  0
  194.2056  157.2180  120.8990 C   0  0  0  0  0  0  0  0  0  0  0  0
  193.8204  156.6396  119.7128 C   0  0  0  0  0  0  0  0  0  0  0  0
  188.1731  160.8504  119.0933 C   0  0  0  0  0  0  0  0  0  0  0  0
  188.2438  162.2728  119.0197 C   0  0  0  0  0  0  0  0  0  0  0  0
  188.6166  165.8842  120.5557 C   0  0  0  0  0  0  0  0  0  0  0  0
  187.8094  166.3475  119.4939 O   0  0  0  0  0  0  0  0  0  0  0  0
  188.0096  167.5917  118.8788 C   0  0  0  0  0  0  0  0  0  0  0  0
  188.3767  166.4951  121.7804 C   0  0  0  0  0  0  0  0  0  0  0  0
  189.1633  166.0380  122.7983 C   0  0  0  0  0  0  0  0  0  0  0  0
  1  2  1  0
  2  3  1  0
  3  4  2  0
  4  5  1  0
  5  6  1  0
  6  7  1  0
  7  8  2  0
  8  9  1  0
  9 10  2  0
 10 11  1  0
 11 12  1  0
 12 13  1  1
 13 14  1  0
 13 15  1  0
 15 16  1  0
 16 17  1  0
 17 18  2  0
 18 19  1  0
 19 20  1  0
 20 21  1  0
 21 22  2  0
 22 23  1  0
 23 24  2  0
 24 25  1  0
 25 26  1  0
 26 27  1  0
 27 28  1  0
 24 29  1  0
 29 30  2  0
 30 31  1  0
 31 32  1  0
 19 33  2  0
 33 34  1  0
 34 35  1  0
 35 36  1  0
 36 37  1  0
 37 38  2  0
 10 39  1  0
 39 40  2  0
  5 41  2  0
 41 42  1  0
 42 43  1  0
 41 44  1  0
 44 45  2  0
 23  1  1  0
 37 33  1  0
  1 27  1  1
 45  3  1  0
 40  7  1  0
 18 12  1  0
 30 21  1  0
 38 17  1  0
M  END
$$$$
