
     RDKit          3D

 35 39  0  0  0  0  0  0  0  0999 V2000
  147.4242  170.0794  132.9804 C   0  0  2  0  0  0  0  0  0  0  0  0
  148.1118  170.5810  131.7632 C   0  0  0  0  0  0  0  0  0  0  0  0
  148.9116  169.4855  131.1261 C   0  0  0  0  0  0  0  0  0  0  0  0
  148.0183  168.3010  130.8165 C   0  0  2  0  0  0  0  0  0  0  0  0
  147.1224  168.7688  129.6942 C   0  0  0  0  0  0  0  0  0  0  0  0
  147.3053  167.7994  132.0079 C   0  0  2  0  0  0  0  0  0  0  0  0
  146.4801  166.5921  131.7140 C   0  0  0  0  0  0  0  0  0  0  0  0
  146.7961  165.9587  130.4190 C   0  0  0  0  0  0  0  0  0  0  0  0
  147.9155  166.1832  129.7118 C   0  0  0  0  0  0  0  0  0  0  0  0
  148.2004  165.5253  128.4021 C   0  0  2  0  0  0  0  0  0  0  0  0
  147.3738  164.2858  128.2444 C   0  0  1  0  0  0  0  0  0  0  0  0
  146.0226  164.7167  127.6591 C   0  0  0  0  0  0  0  0  0  0  0  0
  147.8983  163.2263  127.3479 C   0  0  2  0  0  0  0  0  0  0  0  0
  147.0824  161.9518  127.6991 C   0  0  0  0  0  0  0  0  0  0  0  0
  149.3254  162.9190  127.6005 C   0  0  0  0  0  0  0  0  0  0  0  0
  149.9780  163.8731  128.5753 C   0  0  0  0  0  0  0  0  0  0  0  0
  149.6284  165.2724  128.1081 C   0  0  2  0  0  0  0  0  0  0  0  0
  150.5278  166.3073  128.7008 C   0  0  0  0  0  0  0  0  0  0  0  0
  149.8689  167.5044  129.2913 C   0  0  0  0  0  0  0  0  0  0  0  0
  148.8793  167.1361  130.3039 C   0  0  1  0  0  0  0  0  0  0  0  0
  149.6216  166.5248  131.4931 C   0  0  0  0  0  0  0  0  0  0  0  0
  149.9006  165.3130  126.6260 C   0  0  0  0  0  0  0  0  0  0  0  0
  151.1805  165.5037  126.1797 O   0  0  0  0  0  0  0  0  0  0  0  0
  148.9521  165.1717  125.8486 O   0  0  0  0  0  0  0  0  0  0  0  0
  146.6041  168.8426  132.8484 C   0  0  2  0  0  0  0  0  0  0  0  0
  145.2122  168.9487  132.3855 C   0  0  0  0  0  0  0  0  0  0  0  0
  146.5247  168.2608  134.2733 C   0  0  0  0  0  0  0  0  0  0  0  0
  146.4962  169.2429  135.3522 C   0  0  1  0  0  0  0  0  0  0  0  0
  147.7137  169.2151  136.0778 O   0  0  0  0  0  0  0  0  0  0  0  0
  146.1561  170.6445  135.0133 C   0  0  2  0  0  0  0  0  0  0  0  0
  144.7706  170.9285  135.0956 O   0  0  0  0  0  0  0  0  0  0  0  0
  146.7876  171.1858  133.7618 C   0  0  2  0  0  0  0  0  0  0  0  0
  145.8408  172.0537  132.9637 C   0  0  0  0  0  0  0  0  0  0  0  0
  147.9198  172.1267  134.1753 C   0  0  0  0  0  0  0  0  0  0  0  0
  148.6979  172.3277  133.0052 O   0  0  0  0  0  0  0  0  0  0  0  0
  1  2  1  6
  2  3  1  0
  3  4  1  0
  4  5  1  6
  4  6  1  0
  6  7  1  6
  7  8  1  0
  8  9  2  0
 10  9  1  1
 10 11  1  0
 11 12  1  6
 11 13  1  0
 13 14  1  1
 13 15  1  0
 15 16  1  0
 16 17  1  0
 17 18  1  0
 18 19  1  0
 19 20  1  0
 20 21  1  1
 17 22  1  6
 22 23  1  0
 22 24  2  0
  6 25  1  0
 25 26  1  6
 25 27  1  0
 27 28  1  0
 28 29  1  6
 28 30  1  0
 30 31  1  6
 30 32  1  0
 32 33  1  6
 32 34  1  0
 34 35  1  0
 25  1  1  0
 32  1  1  0
 20  4  1  0
 20  9  1  0
 17 10  1  0
M  END
$$$$
