
     RDKit          3D

 35 39  0  0  0  0  0  0  0  0999 V2000
  162.8797  146.3937  126.1754 C   0  0  2  0  0  0  0  0  0  0  0  0
  163.0277  146.7034  127.6205 C   0  0  0  0  0  0  0  0  0  0  0  0
  164.2269  147.5725  127.8484 C   0  0  0  0  0  0  0  0  0  0  0  0
  164.1227  148.8331  127.0136 C   0  0  2  0  0  0  0  0  0  0  0  0
  163.0003  149.6262  127.6400 C   0  0  0  0  0  0  0  0  0  0  0  0
  163.9510  148.5501  125.5749 C   0  0  2  0  0  0  0  0  0  0  0  0
  163.9172  149.7913  124.7483 C   0  0  0  0  0  0  0  0  0  0  0  0
  164.3872  150.9934  125.4640 C   0  0  0  0  0  0  0  0  0  0  0  0
  165.1016  150.9750  126.6010 C   0  0  0  0  0  0  0  0  0  0  0  0
  165.5582  152.2132  127.2993 C   0  0  2  0  0  0  0  0  0  0  0  0
  165.5564  153.3794  126.3589 C   0  0  1  0  0  0  0  0  0  0  0  0
  164.1407  153.9706  126.3769 C   0  0  0  0  0  0  0  0  0  0  0  0
  166.4806  154.5001  126.6612 C   0  0  2  0  0  0  0  0  0  0  0  0
  166.5639  155.3274  125.3489 C   0  0  0  0  0  0  0  0  0  0  0  0
  167.8524  154.0394  126.9790 C   0  0  0  0  0  0  0  0  0  0  0  0
  167.9621  152.5371  127.1102 C   0  0  0  0  0  0  0  0  0  0  0  0
  166.8393  152.1018  128.0314 C   0  0  2  0  0  0  0  0  0  0  0  0
  167.0639  150.7345  128.5892 C   0  0  0  0  0  0  0  0  0  0  0  0
  165.9182  149.7870  128.5141 C   0  0  0  0  0  0  0  0  0  0  0  0
  165.4249  149.6381  127.1449 C   0  0  1  0  0  0  0  0  0  0  0  0
  166.5090  148.9397  126.3228 C   0  0  0  0  0  0  0  0  0  0  0  0
  166.8750  153.0260  129.2217 C   0  0  0  0  0  0  0  0  0  0  0  0
  165.7051  153.5397  129.7127 O   0  0  0  0  0  0  0  0  0  0  0  0
  167.9692  153.2964  129.7253 O   0  0  0  0  0  0  0  0  0  0  0  0
  162.8846  147.5381  125.2214 C   0  0  2  0  0  0  0  0  0  0  0  0
  161.6311  148.2612  124.9592 C   0  0  0  0  0  0  0  0  0  0  0  0
  163.3040  146.9300  123.8688 C   0  0  0  0  0  0  0  0  0  0  0  0
  162.8505  145.5644  123.6263 C   0  0  1  0  0  0  0  0  0  0  0  0
  163.9463  144.6659  123.6651 O   0  0  0  0  0  0  0  0  0  0  0  0
  161.7486  145.0344  124.4628 C   0  0  2  0  0  0  0  0  0  0  0  0
  160.4612  145.2607  123.9162 O   0  0  0  0  0  0  0  0  0  0  0  0
  161.8244  145.3619  125.9274 C   0  0  2  0  0  0  0  0  0  0  0  0
  160.4721  145.6926  126.5181 C   0  0  0  0  0  0  0  0  0  0  0  0
  162.2727  144.1017  126.6686 C   0  0  0  0  0  0  0  0  0  0  0  0
  163.5112  144.4349  127.2769 O   0  0  0  0  0  0  0  0  0  0  0  0
  1  2  1  1
  2  3  1  0
  3  4  1  0
  4  5  1  1
  4  6  1  0
  6  7  1  6
  7  8  1  0
  8  9  2  0
 10  9  1  6
 10 11  1  0
 11 12  1  1
 11 13  1  0
 13 14  1  6
 13 15  1  0
 15 16  1  0
 16 17  1  0
 17 18  1  0
 18 19  1  0
 19 20  1  0
 20 21  1  6
 17 22  1  1
 22 23  1  0
 22 24  2  0
  6 25  1  0
 25 26  1  6
 25 27  1  0
 27 28  1  0
 28 29  1  1
 28 30  1  0
 30 31  1  6
 30 32  1  0
 32 33  1  1
 32 34  1  0
 34 35  1  0
 25  1  1  0
 32  1  1  0
 20  4  1  0
 20  9  1  0
 17 10  1  0
M  END
$$$$
