
     RDKit          3D

 35 39  0  0  0  0  0  0  0  0999 V2000
  192.1108  160.0237  121.5794 C   0  0  2  0  0  0  0  0  0  0  0  0
  190.6668  159.8427  121.2826 C   0  0  0  0  0  0  0  0  0  0  0  0
  190.3530  160.3268  119.8997 C   0  0  0  0  0  0  0  0  0  0  0  0
  191.2263  159.6129  118.8874 C   0  0  2  0  0  0  0  0  0  0  0  0
  190.7257  158.1880  118.8738 C   0  0  0  0  0  0  0  0  0  0  0  0
  192.6668  159.7589  119.1754 C   0  0  2  0  0  0  0  0  0  0  0  0
  193.5250  159.1132  118.1403 C   0  0  0  0  0  0  0  0  0  0  0  0
  192.8009  158.7659  116.9021 C   0  0  0  0  0  0  0  0  0  0  0  0
  191.6033  159.2631  116.5525 C   0  0  0  0  0  0  0  0  0  0  0  0
  190.8986  158.8861  115.2913 C   0  0  2  0  0  0  0  0  0  0  0  0
  191.8652  158.3190  114.2971 C   0  0  1  0  0  0  0  0  0  0  0  0
  191.9919  156.8195  114.5966 C   0  0  0  0  0  0  0  0  0  0  0  0
  191.5090  158.4291  112.8610 C   0  0  2  0  0  0  0  0  0  0  0  0
  192.8293  158.1547  112.0895 C   0  0  0  0  0  0  0  0  0  0  0  0
  191.0555  159.7892  112.4876 C   0  0  0  0  0  0  0  0  0  0  0  0
  190.8758  160.7059  113.6766 C   0  0  0  0  0  0  0  0  0  0  0  0
  190.0500  159.9393  114.6909 C   0  0  2  0  0  0  0  0  0  0  0  0
  189.4387  160.8369  115.7164 C   0  0  0  0  0  0  0  0  0  0  0  0
  189.5935  160.4269  117.1391 C   0  0  0  0  0  0  0  0  0  0  0  0
  190.9976  160.2264  117.4973 C   0  0  1  0  0  0  0  0  0  0  0  0
  191.6989  161.5847  117.4479 C   0  0  0  0  0  0  0  0  0  0  0  0
  188.8858  159.3458  113.9394 C   0  0  0  0  0  0  0  0  0  0  0  0
  188.4050  158.1163  114.3013 O   0  0  0  0  0  0  0  0  0  0  0  0
  188.3939  159.9916  113.0094 O   0  0  0  0  0  0  0  0  0  0  0  0
  193.0898  159.4754  120.5992 C   0  0  2  0  0  0  0  0  0  0  0  0
  193.4839  158.0615  120.6907 C   0  0  0  0  0  0  0  0  0  0  0  0
  194.3822  160.2826  120.8299 C   0  0  0  0  0  0  0  0  0  0  0  0
  194.6295  160.6921  122.2085 C   0  0  1  0  0  0  0  0  0  0  0  0
  194.4675  162.0938  122.3440 O   0  0  0  0  0  0  0  0  0  0  0  0
  193.8836  160.0031  123.2873 C   0  0  2  0  0  0  0  0  0  0  0  0
  194.5511  158.8641  123.8013 O   0  0  0  0  0  0  0  0  0  0  0  0
  192.4272  159.7508  123.0165 C   0  0  2  0  0  0  0  0  0  0  0  0
  191.9713  158.3974  123.5136 C   0  0  0  0  0  0  0  0  0  0  0  0
  191.6158  160.7568  123.8338 C   0  0  0  0  0  0  0  0  0  0  0  0
  190.2629  160.5581  123.4527 O   0  0  0  0  0  0  0  0  0  0  0  0
  1  2  1  6
  2  3  1  0
  3  4  1  0
  4  5  1  6
  4  6  1  0
  6  7  1  6
  7  8  1  0
  8  9  2  0
 10  9  1  1
 10 11  1  0
 11 12  1  1
 11 13  1  0
 13 14  1  6
 13 15  1  0
 15 16  1  0
 16 17  1  0
 17 18  1  0
 18 19  1  0
 19 20  1  0
 20 21  1  1
 17 22  1  6
 22 23  1  0
 22 24  2  0
  6 25  1  0
 25 26  1  6
 25 27  1  0
 27 28  1  0
 28 29  1  6
 28 30  1  0
 30 31  1  6
 30 32  1  0
 32 33  1  1
 32 34  1  0
 34 35  1  0
 25  1  1  0
 32  1  1  0
 20  4  1  0
 20  9  1  0
 17 10  1  0
M  END
$$$$
