
     RDKit          3D

 35 39  0  0  0  0  0  0  0  0999 V2000
  172.6975  161.8120  112.1916 C   0  0  2  0  0  0  0  0  0  0  0  0
  172.7231  162.8271  113.2755 C   0  0  0  0  0  0  0  0  0  0  0  0
  173.9098  163.7285  113.1191 C   0  0  0  0  0  0  0  0  0  0  0  0
  173.8964  164.3740  111.7479 C   0  0  2  0  0  0  0  0  0  0  0  0
  172.7348  165.3387  111.7804 C   0  0  0  0  0  0  0  0  0  0  0  0
  173.8470  163.3842  110.6537 C   0  0  2  0  0  0  0  0  0  0  0  0
  173.9028  164.0196  109.3053 C   0  0  0  0  0  0  0  0  0  0  0  0
  174.3253  165.4333  109.3330 C   0  0  0  0  0  0  0  0  0  0  0  0
  174.9375  166.0275  110.3702 C   0  0  0  0  0  0  0  0  0  0  0  0
  175.3485  167.4629  110.3633 C   0  0  2  0  0  0  0  0  0  0  0  0
  175.4451  167.9764  108.9593 C   0  0  1  0  0  0  0  0  0  0  0  0
  174.0416  168.4449  108.5532 C   0  0  0  0  0  0  0  0  0  0  0  0
  176.3550  169.1225  108.7138 C   0  0  2  0  0  0  0  0  0  0  0  0
  176.5640  169.1570  107.1747 C   0  0  0  0  0  0  0  0  0  0  0  0
  177.6872  168.9374  109.3350 C   0  0  0  0  0  0  0  0  0  0  0  0
  177.7641  167.7225  110.2318 C   0  0  0  0  0  0  0  0  0  0  0  0
  176.5592  167.7875  111.1498 C   0  0  2  0  0  0  0  0  0  0  0  0
  176.7152  166.9119  112.3498 C   0  0  0  0  0  0  0  0  0  0  0  0
  175.5673  166.0240  112.6813 C   0  0  0  0  0  0  0  0  0  0  0  0
  175.1933  165.1741  111.5507 C   0  0  1  0  0  0  0  0  0  0  0  0
  176.3353  164.1882  111.2996 C   0  0  0  0  0  0  0  0  0  0  0  0
  176.5038  169.1937  111.6899 C   0  0  0  0  0  0  0  0  0  0  0  0
  175.2917  169.8117  111.8403 O   0  0  0  0  0  0  0  0  0  0  0  0
  177.5636  169.7541  111.9844 O   0  0  0  0  0  0  0  0  0  0  0  0
  172.8015  162.3000  110.7877 C   0  0  2  0  0  0  0  0  0  0  0  0
  171.5859  162.7424  110.0882 C   0  0  0  0  0  0  0  0  0  0  0  0
  173.3289  161.0960  109.9833 C   0  0  0  0  0  0  0  0  0  0  0  0
  172.8793  159.7867  110.4448 C   0  0  1  0  0  0  0  0  0  0  0  0
  173.9548  159.0737  111.0317 O   0  0  0  0  0  0  0  0  0  0  0  0
  171.7012  159.7276  111.3412 C   0  0  2  0  0  0  0  0  0  0  0  0
  170.4698  159.5968  110.6530 O   0  0  0  0  0  0  0  0  0  0  0  0
  171.6535  160.7657  112.4267 C   0  0  2  0  0  0  0  0  0  0  0  0
  170.2596  161.3085  112.6485 C   0  0  0  0  0  0  0  0  0  0  0  0
  172.0178  160.0838  113.7460 C   0  0  0  0  0  0  0  0  0  0  0  0
  171.5968  160.9751  114.7674 O   0  0  0  0  0  0  0  0  0  0  0  0
  1  2  1  1
  2  3  1  0
  3  4  1  0
  4  5  1  1
  4  6  1  0
  6  7  1  6
  7  8  1  0
  8  9  2  0
 10  9  1  6
 10 11  1  0
 11 12  1  1
 11 13  1  0
 13 14  1  6
 13 15  1  0
 15 16  1  0
 16 17  1  0
 17 18  1  0
 18 19  1  0
 19 20  1  0
 20 21  1  6
 17 22  1  1
 22 23  1  0
 22 24  2  0
  6 25  1  0
 25 26  1  6
 25 27  1  0
 27 28  1  0
 28 29  1  1
 28 30  1  0
 30 31  1  6
 30 32  1  0
 32 33  1  1
 32 34  1  0
 34 35  1  0
 25  1  1  0
 32  1  1  0
 20  4  1  0
 20  9  1  0
 17 10  1  0
M  END
$$$$
