
     RDKit          3D

 35 39  0  0  0  0  0  0  0  0999 V2000
  149.4699  166.8534  129.1392 C   0  0  2  0  0  0  0  0  0  0  0  0
  149.4879  166.3455  130.5348 C   0  0  0  0  0  0  0  0  0  0  0  0
  149.2378  167.4634  131.5008 C   0  0  0  0  0  0  0  0  0  0  0  0
  147.9283  168.1521  131.1727 C   0  0  2  0  0  0  0  0  0  0  0  0
  146.8577  167.1472  131.5264 C   0  0  0  0  0  0  0  0  0  0  0  0
  147.8777  168.6451  129.7820 C   0  0  2  0  0  0  0  0  0  0  0  0
  146.6158  169.3819  129.4823 C   0  0  0  0  0  0  0  0  0  0  0  0
  145.8469  169.7548  130.6856 C   0  0  0  0  0  0  0  0  0  0  0  0
  146.3418  169.7707  131.9339 C   0  0  0  0  0  0  0  0  0  0  0  0
  145.5321  170.1515  133.1292 C   0  0  2  0  0  0  0  0  0  0  0  0
  144.3322  170.9497  132.7200 C   0  0  1  0  0  0  0  0  0  0  0  0
  143.2232  169.9489  132.3698 C   0  0  0  0  0  0  0  0  0  0  0  0
  143.7556  171.8771  133.7245 C   0  0  2  0  0  0  0  0  0  0  0  0
  142.8341  172.8330  132.9179 C   0  0  0  0  0  0  0  0  0  0  0  0
  144.7841  172.7123  134.3875 C   0  0  0  0  0  0  0  0  0  0  0  0
  146.1982  172.3085  134.0365 C   0  0  0  0  0  0  0  0  0  0  0  0
  146.2774  170.8064  134.2270 C   0  0  2  0  0  0  0  0  0  0  0  0
  147.6869  170.3235  134.3311 C   0  0  0  0  0  0  0  0  0  0  0  0
  148.0541  169.1512  133.4903 C   0  0  0  0  0  0  0  0  0  0  0  0
  147.7623  169.3842  132.0758 C   0  0  1  0  0  0  0  0  0  0  0  0
  148.7006  170.4818  131.5719 C   0  0  0  0  0  0  0  0  0  0  0  0
  145.6564  170.5084  135.5679 C   0  0  0  0  0  0  0  0  0  0  0  0
  144.5677  169.6817  135.6388 O   0  0  0  0  0  0  0  0  0  0  0  0
  146.1521  171.0233  136.5744 O   0  0  0  0  0  0  0  0  0  0  0  0
  148.2901  167.6576  128.7137 C   0  0  2  0  0  0  0  0  0  0  0  0
  147.0839  166.9664  128.2338 C   0  0  0  0  0  0  0  0  0  0  0  0
  148.7878  168.4995  127.5227 C   0  0  0  0  0  0  0  0  0  0  0  0
  149.7873  167.8585  126.6744 C   0  0  1  0  0  0  0  0  0  0  0  0
  151.0498  168.4812  126.8417 O   0  0  0  0  0  0  0  0  0  0  0  0
  149.9461  166.3886  126.7691 C   0  0  2  0  0  0  0  0  0  0  0  0
  149.1255  165.6693  125.8657 O   0  0  0  0  0  0  0  0  0  0  0  0
  149.9217  165.8169  128.1586 C   0  0  2  0  0  0  0  0  0  0  0  0
  149.1656  164.5095  128.2341 C   0  0  0  0  0  0  0  0  0  0  0  0
  151.3569  165.4569  128.5444 C   0  0  0  0  0  0  0  0  0  0  0  0
  151.9259  166.6503  129.0611 O   0  0  0  0  0  0  0  0  0  0  0  0
  1  2  1  1
  2  3  1  0
  3  4  1  0
  4  5  1  6
  4  6  1  0
  6  7  1  6
  7  8  1  0
  8  9  2  0
 10  9  1  6
 10 11  1  0
 11 12  1  1
 11 13  1  0
 13 14  1  6
 13 15  1  0
 15 16  1  0
 16 17  1  0
 17 18  1  0
 18 19  1  0
 19 20  1  0
 20 21  1  6
 17 22  1  1
 22 23  1  0
 22 24  2  0
  6 25  1  0
 25 26  1  6
 25 27  1  0
 27 28  1  0
 28 29  1  1
 28 30  1  0
 30 31  1  6
 30 32  1  0
 32 33  1  6
 32 34  1  0
 34 35  1  0
 25  1  1  0
 32  1  1  0
 20  4  1  0
 20  9  1  0
 17 10  1  0
M  END
$$$$
