
     RDKit          3D

 35 39  0  0  0  0  0  0  0  0999 V2000
  184.1776  162.0650  141.6219 C   0  0  2  0  0  0  0  0  0  0  0  0
  184.1082  160.8189  140.8165 C   0  0  0  0  0  0  0  0  0  0  0  0
  184.3592  161.1174  139.3697 C   0  0  0  0  0  0  0  0  0  0  0  0
  185.6942  161.8159  139.2061 C   0  0  2  0  0  0  0  0  0  0  0  0
  186.7290  160.7627  139.5237 C   0  0  0  0  0  0  0  0  0  0  0  0
  185.7957  163.0458  140.0163 C   0  0  2  0  0  0  0  0  0  0  0  0
  187.0835  163.7673  139.8013 C   0  0  0  0  0  0  0  0  0  0  0  0
  187.8278  163.3100  138.6117 C   0  0  0  0  0  0  0  0  0  0  0  0
  187.2990  162.5876  137.6107 C   0  0  0  0  0  0  0  0  0  0  0  0
  188.0845  162.1400  136.4225 C   0  0  2  0  0  0  0  0  0  0  0  0
  189.3149  162.9787  136.2580 C   0  0  1  0  0  0  0  0  0  0  0  0
  190.4078  162.3521  137.1339 C   0  0  0  0  0  0  0  0  0  0  0  0
  189.8865  163.0901  134.8933 C   0  0  2  0  0  0  0  0  0  0  0  0
  190.8536  164.3045  134.9524 C   0  0  0  0  0  0  0  0  0  0  0  0
  188.8612  163.3932  133.8677 C   0  0  0  0  0  0  0  0  0  0  0  0
  187.4477  163.3353  134.4012 C   0  0  0  0  0  0  0  0  0  0  0  0
  187.3257  162.0267  135.1571 C   0  0  2  0  0  0  0  0  0  0  0  0
  185.9021  161.6310  135.3758 C   0  0  0  0  0  0  0  0  0  0  0  0
  185.5292  161.2179  136.7565 C   0  0  0  0  0  0  0  0  0  0  0  0
  185.8658  162.2463  137.7411 C   0  0  1  0  0  0  0  0  0  0  0  0
  184.9697  163.4592  137.4862 C   0  0  0  0  0  0  0  0  0  0  0  0
  187.9015  160.9574  134.2642 C   0  0  0  0  0  0  0  0  0  0  0  0
  189.0283  160.2858  134.6556 O   0  0  0  0  0  0  0  0  0  0  0  0
  187.3351  160.7149  133.1944 O   0  0  0  0  0  0  0  0  0  0  0  0
  185.3885  162.9190  141.4670 C   0  0  2  0  0  0  0  0  0  0  0  0
  186.5899  162.6137  142.2585 C   0  0  0  0  0  0  0  0  0  0  0  0
  184.9453  164.3266  141.9111 C   0  0  0  0  0  0  0  0  0  0  0  0
  183.9540  164.3645  142.9813 C   0  0  1  0  0  0  0  0  0  0  0  0
  182.7033  164.8060  142.4808 O   0  0  0  0  0  0  0  0  0  0  0  0
  183.7558  163.1423  143.7948 C   0  0  2  0  0  0  0  0  0  0  0  0
  184.5829  163.0843  144.9435 O   0  0  0  0  0  0  0  0  0  0  0  0
  183.7274  161.8476  143.0325 C   0  0  2  0  0  0  0  0  0  0  0  0
  184.4480  160.7328  143.7568 C   0  0  0  0  0  0  0  0  0  0  0  0
  182.2734  161.3807  142.9526 C   0  0  0  0  0  0  0  0  0  0  0  0
  181.7164  162.0512  141.8322 O   0  0  0  0  0  0  0  0  0  0  0  0
  1  2  1  1
  2  3  1  0
  3  4  1  0
  4  5  1  1
  4  6  1  0
  6  7  1  1
  7  8  1  0
  8  9  2  0
 10  9  1  1
 10 11  1  0
 11 12  1  1
 11 13  1  0
 13 14  1  1
 13 15  1  0
 15 16  1  0
 16 17  1  0
 17 18  1  0
 18 19  1  0
 19 20  1  0
 20 21  1  6
 17 22  1  6
 22 23  1  0
 22 24  2  0
  6 25  1  0
 25 26  1  1
 25 27  1  0
 27 28  1  0
 28 29  1  6
 28 30  1  0
 30 31  1  1
 30 32  1  0
 32 33  1  1
 32 34  1  0
 34 35  1  0
 25  1  1  0
 32  1  1  0
 20  4  1  0
 20  9  1  0
 17 10  1  0
M  END
$$$$
