
     RDKit          3D

 35 39  0  0  0  0  0  0  0  0999 V2000
  189.7922  161.3360  131.9365 C   0  0  2  0  0  0  0  0  0  0  0  0
  191.1159  161.3397  131.2627 C   0  0  0  0  0  0  0  0  0  0  0  0
  191.0421  160.5993  129.9620 C   0  0  0  0  0  0  0  0  0  0  0  0
  189.9642  161.1993  129.0817 C   0  0  2  0  0  0  0  0  0  0  0  0
  190.4979  162.5528  128.6761 C   0  0  0  0  0  0  0  0  0  0  0  0
  188.6429  161.2281  129.7397 C   0  0  2  0  0  0  0  0  0  0  0  0
  187.5710  161.7560  128.8467 C   0  0  0  0  0  0  0  0  0  0  0  0
  187.9624  161.8216  127.4252 C   0  0  0  0  0  0  0  0  0  0  0  0
  189.0087  161.1716  126.8902 C   0  0  0  0  0  0  0  0  0  0  0  0
  189.3765  161.2640  125.4461 C   0  0  2  0  0  0  0  0  0  0  0  0
  188.2076  161.7310  124.6337 C   0  0  1  0  0  0  0  0  0  0  0  0
  188.2198  163.2650  124.6669 C   0  0  0  0  0  0  0  0  0  0  0  0
  188.1751  161.3448  123.2015 C   0  0  2  0  0  0  0  0  0  0  0  0
  186.7115  161.5931  122.7435 C   0  0  0  0  0  0  0  0  0  0  0  0
  188.4645  159.9072  122.9909 C   0  0  0  0  0  0  0  0  0  0  0  0
  188.9111  159.1976  124.2491 C   0  0  0  0  0  0  0  0  0  0  0  0
  190.0000  160.0548  124.8640 C   0  0  2  0  0  0  0  0  0  0  0  0
  190.8214  159.2990  125.8564 C   0  0  0  0  0  0  0  0  0  0  0  0
  191.0562  159.9601  127.1694 C   0  0  0  0  0  0  0  0  0  0  0  0
  189.8014  160.3379  127.8197 C   0  0  1  0  0  0  0  0  0  0  0  0
  189.0603  159.0561  128.2027 C   0  0  0  0  0  0  0  0  0  0  0  0
  190.9514  160.4086  123.7495 C   0  0  0  0  0  0  0  0  0  0  0  0
  191.5232  159.4103  123.0079 O   0  0  0  0  0  0  0  0  0  0  0  0
  191.1905  161.6006  123.5349 O   0  0  0  0  0  0  0  0  0  0  0  0
  188.6143  161.7880  131.1441 C   0  0  2  0  0  0  0  0  0  0  0  0
  188.3113  163.2248  131.0619 C   0  0  0  0  0  0  0  0  0  0  0  0
  187.3961  161.1455  131.8356 C   0  0  0  0  0  0  0  0  0  0  0  0
  187.4990  161.0026  133.2841 C   0  0  1  0  0  0  0  0  0  0  0  0
  187.6372  159.6367  133.6372 O   0  0  0  0  0  0  0  0  0  0  0  0
  188.5245  161.8016  133.9947 C   0  0  2  0  0  0  0  0  0  0  0  0
  188.0567  163.0648  134.4337 O   0  0  0  0  0  0  0  0  0  0  0  0
  189.8695  161.8787  133.3291 C   0  0  2  0  0  0  0  0  0  0  0  0
  190.4898  163.2539  133.4334 C   0  0  0  0  0  0  0  0  0  0  0  0
  190.8262  160.9636  134.0945 C   0  0  0  0  0  0  0  0  0  0  0  0
  191.9441  160.7767  133.2400 O   0  0  0  0  0  0  0  0  0  0  0  0
  1  2  1  6
  2  3  1  0
  3  4  1  0
  4  5  1  6
  4  6  1  0
  6  7  1  6
  7  8  1  0
  8  9  2  0
 10  9  1  1
 10 11  1  0
 11 12  1  6
 11 13  1  0
 13 14  1  1
 13 15  1  0
 15 16  1  0
 16 17  1  0
 17 18  1  0
 18 19  1  0
 19 20  1  0
 20 21  1  1
 17 22  1  6
 22 23  1  0
 22 24  2  0
  6 25  1  0
 25 26  1  6
 25 27  1  0
 27 28  1  0
 28 29  1  6
 28 30  1  0
 30 31  1  6
 30 32  1  0
 32 33  1  6
 32 34  1  0
 34 35  1  0
 25  1  1  0
 32  1  1  0
 20  4  1  0
 20  9  1  0
 17 10  1  0
M  END
$$$$
