
     RDKit          3D

 35 39  0  0  0  0  0  0  0  0999 V2000
  162.3060  145.7924  126.4930 C   0  0  2  0  0  0  0  0  0  0  0  0
  162.6502  146.1122  127.9021 C   0  0  0  0  0  0  0  0  0  0  0  0
  163.9496  146.8556  127.9666 C   0  0  0  0  0  0  0  0  0  0  0  0
  163.8784  148.1042  127.1107 C   0  0  2  0  0  0  0  0  0  0  0  0
  162.9220  149.0217  127.8350 C   0  0  0  0  0  0  0  0  0  0  0  0
  163.5142  147.8136  125.7098 C   0  0  2  0  0  0  0  0  0  0  0  0
  163.5114  149.0357  124.8546 C   0  0  0  0  0  0  0  0  0  0  0  0
  164.1804  150.1955  125.4756 C   0  0  0  0  0  0  0  0  0  0  0  0
  165.0155  150.1241  126.5248 C   0  0  0  0  0  0  0  0  0  0  0  0
  165.6728  151.3209  127.1290 C   0  0  2  0  0  0  0  0  0  0  0  0
  165.6810  152.4629  126.1595 C   0  0  1  0  0  0  0  0  0  0  0  0
  164.3442  153.1989  126.3187 C   0  0  0  0  0  0  0  0  0  0  0  0
  166.7429  153.4866  126.3211 C   0  0  2  0  0  0  0  0  0  0  0  0
  166.7579  154.2758  124.9830 C   0  0  0  0  0  0  0  0  0  0  0  0
  168.0882  152.8914  126.4963 C   0  0  0  0  0  0  0  0  0  0  0  0
  168.0593  151.3886  126.6603 C   0  0  0  0  0  0  0  0  0  0  0  0
  167.0119  151.0902  127.7151 C   0  0  2  0  0  0  0  0  0  0  0  0
  167.1593  149.7177  128.2856 C   0  0  0  0  0  0  0  0  0  0  0  0
  165.9223  148.8938  128.3692 C   0  0  0  0  0  0  0  0  0  0  0  0
  165.2619  148.7713  127.0696 C   0  0  1  0  0  0  0  0  0  0  0  0
  166.1676  147.9482  126.1524 C   0  0  0  0  0  0  0  0  0  0  0  0
  167.2781  152.0280  128.8649 C   0  0  0  0  0  0  0  0  0  0  0  0
  166.2254  152.5985  129.5282 O   0  0  0  0  0  0  0  0  0  0  0  0
  168.4497  152.2575  129.1790 O   0  0  0  0  0  0  0  0  0  0  0  0
  162.3170  146.9119  125.5099 C   0  0  2  0  0  0  0  0  0  0  0  0
  161.1215  147.7567  125.3687 C   0  0  0  0  0  0  0  0  0  0  0  0
  162.5138  146.2380  124.1380 C   0  0  0  0  0  0  0  0  0  0  0  0
  161.8992  144.9228  123.9902 C   0  0  1  0  0  0  0  0  0  0  0  0
  162.8952  143.9157  123.9328 O   0  0  0  0  0  0  0  0  0  0  0  0
  160.8529  144.5265  124.9614 C   0  0  2  0  0  0  0  0  0  0  0  0
  159.5408  144.8755  124.5567 O   0  0  0  0  0  0  0  0  0  0  0  0
  161.1298  144.8719  126.3974 C   0  0  2  0  0  0  0  0  0  0  0  0
  159.8953  145.3529  127.1262 C   0  0  0  0  0  0  0  0  0  0  0  0
  161.5304  143.5860  127.1216 C   0  0  0  0  0  0  0  0  0  0  0  0
  162.9438  143.5099  127.0142 O   0  0  0  0  0  0  0  0  0  0  0  0
  1  2  1  1
  2  3  1  0
  3  4  1  0
  4  5  1  1
  4  6  1  0
  6  7  1  6
  7  8  1  0
  8  9  2  0
 10  9  1  6
 10 11  1  0
 11 12  1  1
 11 13  1  0
 13 14  1  6
 13 15  1  0
 15 16  1  0
 16 17  1  0
 17 18  1  0
 18 19  1  0
 19 20  1  0
 20 21  1  6
 17 22  1  1
 22 23  1  0
 22 24  2  0
  6 25  1  0
 25 26  1  6
 25 27  1  0
 27 28  1  0
 28 29  1  1
 28 30  1  0
 30 31  1  6
 30 32  1  0
 32 33  1  1
 32 34  1  0
 34 35  1  0
 25  1  1  0
 32  1  1  0
 20  4  1  0
 20  9  1  0
 17 10  1  0
M  END
$$$$
