
     RDKit          3D

 35 39  0  0  0  0  0  0  0  0999 V2000
  117.8542  144.2276  163.7563 C   0  0  2  0  0  0  0  0  0  0  0  0
  119.2022  144.7720  164.0607 C   0  0  0  0  0  0  0  0  0  0  0  0
  119.2033  146.2651  163.9349 C   0  0  0  0  0  0  0  0  0  0  0  0
  118.1413  146.8643  164.8350 C   0  0  2  0  0  0  0  0  0  0  0  0
  118.6458  146.6382  166.2405 C   0  0  0  0  0  0  0  0  0  0  0  0
  116.7953  146.3204  164.5668 C   0  0  2  0  0  0  0  0  0  0  0  0
  115.7422  146.9611  165.4069 C   0  0  0  0  0  0  0  0  0  0  0  0
  116.1861  148.2029  166.0693 C   0  0  0  0  0  0  0  0  0  0  0  0
  117.2731  148.9093  165.7186 C   0  0  0  0  0  0  0  0  0  0  0  0
  117.6935  150.1616  166.4145 C   0  0  2  0  0  0  0  0  0  0  0  0
  116.5424  150.7594  167.1642 C   0  0  1  0  0  0  0  0  0  0  0  0
  116.5032  150.0853  168.5420 C   0  0  0  0  0  0  0  0  0  0  0  0
  116.5782  152.2212  167.4155 C   0  0  2  0  0  0  0  0  0  0  0  0
  115.1261  152.6039  167.8138 C   0  0  0  0  0  0  0  0  0  0  0  0
  116.9224  153.0009  166.2037 C   0  0  0  0  0  0  0  0  0  0  0  0
  117.3428  152.1361  165.0369 C   0  0  0  0  0  0  0  0  0  0  0  0
  118.3783  151.1658  165.5706 C   0  0  2  0  0  0  0  0  0  0  0  0
  119.1849  150.5430  164.4786 C   0  0  0  0  0  0  0  0  0  0  0  0
  119.3468  149.0640  164.5294 C   0  0  0  0  0  0  0  0  0  0  0  0
  118.0560  148.3775  164.5820 C   0  0  1  0  0  0  0  0  0  0  0  0
  117.3428  148.6043  163.2482 C   0  0  0  0  0  0  0  0  0  0  0  0
  119.3602  151.9811  166.3728 C   0  0  0  0  0  0  0  0  0  0  0  0
  119.9859  151.4149  167.4507 O   0  0  0  0  0  0  0  0  0  0  0  0
  119.5747  153.1480  166.0318 O   0  0  0  0  0  0  0  0  0  0  0  0
  116.6938  144.8141  164.4839 C   0  0  2  0  0  0  0  0  0  0  0  0
  116.3474  144.3008  165.8178 C   0  0  0  0  0  0  0  0  0  0  0  0
  115.4714  144.5164  163.5940 C   0  0  0  0  0  0  0  0  0  0  0  0
  115.5225  143.2582  162.8567 C   0  0  1  0  0  0  0  0  0  0  0  0
  115.6915  143.5043  161.4709 O   0  0  0  0  0  0  0  0  0  0  0  0
  116.4930  142.2287  163.2964 C   0  0  2  0  0  0  0  0  0  0  0  0
  115.9674  141.3240  164.2516 O   0  0  0  0  0  0  0  0  0  0  0  0
  117.8596  142.7338  163.6642 C   0  0  2  0  0  0  0  0  0  0  0  0
  118.4300  142.0322  164.8762 C   0  0  0  0  0  0  0  0  0  0  0  0
  118.8152  142.3769  162.5250 C   0  0  0  0  0  0  0  0  0  0  0  0
  118.7245  143.4485  161.5984 O   0  0  0  0  0  0  0  0  0  0  0  0
  1  2  1  1
  2  3  1  0
  3  4  1  0
  4  5  1  1
  4  6  1  0
  6  7  1  1
  7  8  1  0
  8  9  2  0
 10  9  1  6
 10 11  1  0
 11 12  1  1
 11 13  1  0
 13 14  1  6
 13 15  1  0
 15 16  1  0
 16 17  1  0
 17 18  1  0
 18 19  1  0
 19 20  1  0
 20 21  1  6
 17 22  1  1
 22 23  1  0
 22 24  2  0
  6 25  1  0
 25 26  1  1
 25 27  1  0
 27 28  1  0
 28 29  1  6
 28 30  1  0
 30 31  1  1
 30 32  1  0
 32 33  1  1
 32 34  1  0
 34 35  1  0
 25  1  1  0
 32  1  1  0
 20  4  1  0
 20  9  1  0
 17 10  1  0
M  END
$$$$
