
     RDKit          3D

 35 39  0  0  0  0  0  0  0  0999 V2000
  166.2437  153.7236  127.7310 C   0  0  2  0  0  0  0  0  0  0  0  0
  167.3738  152.8604  128.1597 C   0  0  0  0  0  0  0  0  0  0  0  0
  166.8785  151.4938  128.5236 C   0  0  0  0  0  0  0  0  0  0  0  0
  166.1212  150.8872  127.3593 C   0  0  2  0  0  0  0  0  0  0  0  0
  167.1729  150.6036  126.3130 C   0  0  0  0  0  0  0  0  0  0  0  0
  165.0067  151.7394  126.8998 C   0  0  2  0  0  0  0  0  0  0  0  0
  164.2215  151.1091  125.7992 C   0  0  0  0  0  0  0  0  0  0  0  0
  164.4928  149.6687  125.6268 C   0  0  0  0  0  0  0  0  0  0  0  0
  165.0932  148.8897  126.5412 C   0  0  0  0  0  0  0  0  0  0  0  0
  165.3538  147.4347  126.3306 C   0  0  2  0  0  0  0  0  0  0  0  0
  164.4610  146.8895  125.2583 C   0  0  1  0  0  0  0  0  0  0  0  0
  165.1621  147.1416  123.9169 C   0  0  0  0  0  0  0  0  0  0  0  0
  164.1514  145.4390  125.3012 C   0  0  2  0  0  0  0  0  0  0  0  0
  162.9246  145.2543  124.3661 C   0  0  0  0  0  0  0  0  0  0  0  0
  163.7489  144.9807  126.6514 C   0  0  0  0  0  0  0  0  0  0  0  0
  163.9230  146.0386  127.7175 C   0  0  0  0  0  0  0  0  0  0  0  0
  165.3234  146.5945  127.5484 C   0  0  2  0  0  0  0  0  0  0  0  0
  165.7908  147.3278  128.7627 C   0  0  0  0  0  0  0  0  0  0  0  0
  166.3948  148.6700  128.5401 C   0  0  0  0  0  0  0  0  0  0  0  0
  165.4954  149.5548  127.7996 C   0  0  1  0  0  0  0  0  0  0  0  0
  164.2893  149.8587  128.6895 C   0  0  0  0  0  0  0  0  0  0  0  0
  166.2457  145.4089  127.4220 C   0  0  0  0  0  0  0  0  0  0  0  0
  167.2797  145.4507  126.5259 O   0  0  0  0  0  0  0  0  0  0  0  0
  166.0408  144.4238  128.1372 O   0  0  0  0  0  0  0  0  0  0  0  0
  165.3376  153.1971  126.6720 C   0  0  2  0  0  0  0  0  0  0  0  0
  165.7057  153.3713  125.2588 C   0  0  0  0  0  0  0  0  0  0  0  0
  164.0164  153.9690  126.8553 C   0  0  0  0  0  0  0  0  0  0  0  0
  164.1528  155.3481  127.3123 C   0  0  1  0  0  0  0  0  0  0  0  0
  163.6900  155.4744  128.6463 O   0  0  0  0  0  0  0  0  0  0  0  0
  165.4778  155.9989  127.1865 C   0  0  2  0  0  0  0  0  0  0  0  0
  165.6603  156.6829  125.9593 O   0  0  0  0  0  0  0  0  0  0  0  0
  166.6604  155.1510  127.5613 C   0  0  2  0  0  0  0  0  0  0  0  0
  167.8372  155.3553  126.6339 C   0  0  0  0  0  0  0  0  0  0  0  0
  167.1598  155.6185  128.9290 C   0  0  0  0  0  0  0  0  0  0  0  0
  166.7453  154.6210  129.8500 O   0  0  0  0  0  0  0  0  0  0  0  0
  1  2  1  6
  2  3  1  0
  3  4  1  0
  4  5  1  6
  4  6  1  0
  6  7  1  6
  7  8  1  0
  8  9  2  0
 10  9  1  1
 10 11  1  0
 11 12  1  6
 11 13  1  0
 13 14  1  6
 13 15  1  0
 15 16  1  0
 16 17  1  0
 17 18  1  0
 18 19  1  0
 19 20  1  0
 20 21  1  1
 17 22  1  6
 22 23  1  0
 22 24  2  0
  6 25  1  0
 25 26  1  6
 25 27  1  0
 27 28  1  0
 28 29  1  1
 28 30  1  0
 30 31  1  6
 30 32  1  0
 32 33  1  6
 32 34  1  0
 34 35  1  0
 25  1  1  0
 32  1  1  0
 20  4  1  0
 20  9  1  0
 17 10  1  0
M  END
$$$$
