
     RDKit          3D

 35 39  0  0  0  0  0  0  0  0999 V2000
  169.4544  145.9559  126.4391 C   0  0  2  0  0  0  0  0  0  0  0  0
  169.4866  146.5218  127.8120 C   0  0  0  0  0  0  0  0  0  0  0  0
  169.0927  147.9674  127.7905 C   0  0  0  0  0  0  0  0  0  0  0  0
  167.7276  148.1258  127.1516 C   0  0  2  0  0  0  0  0  0  0  0  0
  166.7595  147.5213  128.1408 C   0  0  0  0  0  0  0  0  0  0  0  0
  167.6644  147.5491  125.7941 C   0  0  2  0  0  0  0  0  0  0  0  0
  166.3408  147.7666  125.1417 C   0  0  0  0  0  0  0  0  0  0  0  0
  165.5031  148.7739  125.8212 C   0  0  0  0  0  0  0  0  0  0  0  0
  165.9582  149.6719  126.7100 C   0  0  0  0  0  0  0  0  0  0  0  0
  165.0794  150.6758  127.3804 C   0  0  2  0  0  0  0  0  0  0  0  0
  163.8140  150.8708  126.6027 C   0  0  1  0  0  0  0  0  0  0  0  0
  162.8271  149.7928  127.0698 C   0  0  0  0  0  0  0  0  0  0  0  0
  163.1146  152.1706  126.7538 C   0  0  2  0  0  0  0  0  0  0  0  0
  162.1204  152.2417  125.5621 C   0  0  0  0  0  0  0  0  0  0  0  0
  164.0300  153.3293  126.6332 C   0  0  0  0  0  0  0  0  0  0  0  0
  165.4882  152.9342  126.5730 C   0  0  0  0  0  0  0  0  0  0  0  0
  165.7201  151.9665  127.7169 C   0  0  2  0  0  0  0  0  0  0  0  0
  167.1693  151.8185  128.0468 C   0  0  0  0  0  0  0  0  0  0  0  0
  167.6818  150.4283  128.1916 C   0  0  0  0  0  0  0  0  0  0  0  0
  167.4070  149.6212  127.0028 C   0  0  1  0  0  0  0  0  0  0  0  0
  168.2380  150.1802  125.8469 C   0  0  0  0  0  0  0  0  0  0  0  0
  165.0966  152.5878  128.9406 C   0  0  0  0  0  0  0  0  0  0  0  0
  164.3000  151.8264  129.7527 O   0  0  0  0  0  0  0  0  0  0  0  0
  165.3241  153.7776  129.1785 O   0  0  0  0  0  0  0  0  0  0  0  0
  168.2087  146.1463  125.6442 C   0  0  2  0  0  0  0  0  0  0  0  0
  167.0963  145.1993  125.8128 C   0  0  0  0  0  0  0  0  0  0  0  0
  168.6482  146.0133  124.1731 C   0  0  0  0  0  0  0  0  0  0  0  0
  169.7332  145.0698  123.9245 C   0  0  1  0  0  0  0  0  0  0  0  0
  170.9177  145.7620  123.5676 O   0  0  0  0  0  0  0  0  0  0  0  0
  170.0437  144.0691  124.9719 C   0  0  2  0  0  0  0  0  0  0  0  0
  169.3294  142.8543  124.8264 O   0  0  0  0  0  0  0  0  0  0  0  0
  170.0406  144.5799  126.3851 C   0  0  2  0  0  0  0  0  0  0  0  0
  169.4250  143.5968  127.3553 C   0  0  0  0  0  0  0  0  0  0  0  0
  171.4944  144.7139  126.8400 C   0  0  0  0  0  0  0  0  0  0  0  0
  171.8776  146.0411  126.5134 O   0  0  0  0  0  0  0  0  0  0  0  0
  1  2  1  1
  2  3  1  0
  3  4  1  0
  4  5  1  1
  4  6  1  0
  6  7  1  1
  7  8  1  0
  8  9  2  0
 10  9  1  6
 10 11  1  0
 11 12  1  1
 11 13  1  0
 13 14  1  6
 13 15  1  0
 15 16  1  0
 16 17  1  0
 17 18  1  0
 18 19  1  0
 19 20  1  0
 20 21  1  6
 17 22  1  1
 22 23  1  0
 22 24  2  0
  6 25  1  0
 25 26  1  1
 25 27  1  0
 27 28  1  0
 28 29  1  1
 28 30  1  0
 30 31  1  1
 30 32  1  0
 32 33  1  1
 32 34  1  0
 34 35  1  0
 25  1  1  0
 32  1  1  0
 20  4  1  0
 20  9  1  0
 17 10  1  0
M  END
$$$$
