
     RDKit          3D

 35 39  0  0  0  0  0  0  0  0999 V2000
  169.8950  146.5419  125.0066 C   0  0  2  0  0  0  0  0  0  0  0  0
  170.1682  147.9599  125.3538 C   0  0  0  0  0  0  0  0  0  0  0  0
  168.9134  148.7731  125.2549 C   0  0  0  0  0  0  0  0  0  0  0  0
  167.8361  148.1779  126.1392 C   0  0  2  0  0  0  0  0  0  0  0  0
  168.3020  148.4366  127.5524 C   0  0  0  0  0  0  0  0  0  0  0  0
  167.5636  146.7607  125.8283 C   0  0  2  0  0  0  0  0  0  0  0  0
  166.4561  146.1972  126.6535 C   0  0  0  0  0  0  0  0  0  0  0  0
  165.6539  147.2224  127.3488 C   0  0  0  0  0  0  0  0  0  0  0  0
  165.6484  148.5288  127.0377 C   0  0  0  0  0  0  0  0  0  0  0  0
  164.8248  149.5389  127.7661 C   0  0  2  0  0  0  0  0  0  0  0  0
  163.7000  148.8726  128.4978 C   0  0  1  0  0  0  0  0  0  0  0  0
  164.2477  148.4328  129.8619 C   0  0  0  0  0  0  0  0  0  0  0  0
  162.4911  149.6866  128.7762 C   0  0  2  0  0  0  0  0  0  0  0  0
  161.3835  148.6616  129.1454 C   0  0  0  0  0  0  0  0  0  0  0  0
  162.0201  150.4348  127.5874 C   0  0  0  0  0  0  0  0  0  0  0  0
  162.9727  150.3551  126.4159 C   0  0  0  0  0  0  0  0  0  0  0  0
  164.3501  150.6837  126.9574 C   0  0  2  0  0  0  0  0  0  0  0  0
  165.3087  151.0573  125.8746 C   0  0  0  0  0  0  0  0  0  0  0  0
  166.6396  150.3910  125.9029 C   0  0  0  0  0  0  0  0  0  0  0  0
  166.5175  148.9332  125.9113 C   0  0  1  0  0  0  0  0  0  0  0  0
  165.9382  148.4974  124.5647 C   0  0  0  0  0  0  0  0  0  0  0  0
  164.1982  151.9257  127.7981 C   0  0  0  0  0  0  0  0  0  0  0  0
  163.7462  153.0810  127.2197 O   0  0  0  0  0  0  0  0  0  0  0  0
  164.4886  151.8653  128.9964 O   0  0  0  0  0  0  0  0  0  0  0  0
  168.7747  145.8623  125.7158 C   0  0  2  0  0  0  0  0  0  0  0  0
  169.0208  145.2528  127.0314 C   0  0  0  0  0  0  0  0  0  0  0  0
  168.3611  144.7011  124.7909 C   0  0  0  0  0  0  0  0  0  0  0  0
  169.4451  144.0852  124.0326 C   0  0  1  0  0  0  0  0  0  0  0  0
  169.3273  144.4026  122.6560 O   0  0  0  0  0  0  0  0  0  0  0  0
  170.8369  144.3299  124.4776 C   0  0  2  0  0  0  0  0  0  0  0  0
  171.3143  143.3694  125.4031 O   0  0  0  0  0  0  0  0  0  0  0  0
  171.1533  145.7404  124.8878 C   0  0  2  0  0  0  0  0  0  0  0  0
  172.0542  145.8029  126.1007 C   0  0  0  0  0  0  0  0  0  0  0  0
  171.9690  146.3847  123.7663 C   0  0  0  0  0  0  0  0  0  0  0  0
  171.3542  147.6396  123.5172 O   0  0  0  0  0  0  0  0  0  0  0  0
  1  2  1  1
  2  3  1  0
  3  4  1  0
  4  5  1  1
  4  6  1  0
  6  7  1  1
  7  8  1  0
  8  9  2  0
 10  9  1  6
 10 11  1  0
 11 12  1  1
 11 13  1  0
 13 14  1  6
 13 15  1  0
 15 16  1  0
 16 17  1  0
 17 18  1  0
 18 19  1  0
 19 20  1  0
 20 21  1  6
 17 22  1  1
 22 23  1  0
 22 24  2  0
  6 25  1  0
 25 26  1  1
 25 27  1  0
 27 28  1  0
 28 29  1  6
 28 30  1  0
 30 31  1  1
 30 32  1  0
 32 33  1  1
 32 34  1  0
 34 35  1  0
 25  1  1  0
 32  1  1  0
 20  4  1  0
 20  9  1  0
 17 10  1  0
M  END
$$$$
