
     RDKit          3D

 35 39  0  0  0  0  0  0  0  0999 V2000
  162.2951  145.7150  125.8339 C   0  0  2  0  0  0  0  0  0  0  0  0
  162.4410  145.9485  127.2934 C   0  0  0  0  0  0  0  0  0  0  0  0
  163.7270  146.6612  127.5824 C   0  0  0  0  0  0  0  0  0  0  0  0
  163.7917  147.9570  126.7991 C   0  0  2  0  0  0  0  0  0  0  0  0
  162.7536  148.8512  127.4346 C   0  0  0  0  0  0  0  0  0  0  0  0
  163.6251  147.7525  125.3465 C   0  0  2  0  0  0  0  0  0  0  0  0
  163.7572  149.0205  124.5720 C   0  0  0  0  0  0  0  0  0  0  0  0
  164.3455  150.1302  125.3470 C   0  0  0  0  0  0  0  0  0  0  0  0
  165.0236  149.9836  126.4968 C   0  0  0  0  0  0  0  0  0  0  0  0
  165.6032  151.1315  127.2557 C   0  0  2  0  0  0  0  0  0  0  0  0
  165.7613  152.3256  126.3651 C   0  0  1  0  0  0  0  0  0  0  0  0
  164.4240  153.0779  126.3781 C   0  0  0  0  0  0  0  0  0  0  0  0
  166.8017  153.3175  126.7331 C   0  0  2  0  0  0  0  0  0  0  0  0
  167.0143  154.1799  125.4585 C   0  0  0  0  0  0  0  0  0  0  0  0
  168.1019  152.6869  127.0599 C   0  0  0  0  0  0  0  0  0  0  0  0
  168.0325  151.1781  127.1305 C   0  0  0  0  0  0  0  0  0  0  0  0
  166.8435  150.8419  128.0091 C   0  0  2  0  0  0  0  0  0  0  0  0
  166.8930  149.4370  128.5138 C   0  0  0  0  0  0  0  0  0  0  0  0
  165.6470  148.6342  128.3752 C   0  0  0  0  0  0  0  0  0  0  0  0
  165.1750  148.5979  126.9910 C   0  0  1  0  0  0  0  0  0  0  0  0
  166.1911  147.8096  126.1633 C   0  0  0  0  0  0  0  0  0  0  0  0
  166.9561  151.7084  129.2374 C   0  0  0  0  0  0  0  0  0  0  0  0
  165.8293  152.2755  129.7689 O   0  0  0  0  0  0  0  0  0  0  0  0
  168.0723  151.8840  129.7345 O   0  0  0  0  0  0  0  0  0  0  0  0
  162.4576  146.8873  124.9289 C   0  0  2  0  0  0  0  0  0  0  0  0
  161.3039  147.7621  124.6711 C   0  0  0  0  0  0  0  0  0  0  0  0
  162.8378  146.2875  123.5611 C   0  0  0  0  0  0  0  0  0  0  0  0
  162.2348  144.9951  123.2524 C   0  0  1  0  0  0  0  0  0  0  0  0
  163.2171  143.9733  123.2765 O   0  0  0  0  0  0  0  0  0  0  0  0
  161.0575  144.5658  124.0428 C   0  0  2  0  0  0  0  0  0  0  0  0
  159.8198  144.9628  123.4794 O   0  0  0  0  0  0  0  0  0  0  0  0
  161.1334  144.8247  125.5211 C   0  0  2  0  0  0  0  0  0  0  0  0
  159.8143  145.2885  126.0967 C   0  0  0  0  0  0  0  0  0  0  0  0
  161.4129  143.4926  126.2181 C   0  0  0  0  0  0  0  0  0  0  0  0
  162.8230  143.4264  126.3674 O   0  0  0  0  0  0  0  0  0  0  0  0
  1  2  1  1
  2  3  1  0
  3  4  1  0
  4  5  1  1
  4  6  1  0
  6  7  1  6
  7  8  1  0
  8  9  2  0
 10  9  1  6
 10 11  1  0
 11 12  1  1
 11 13  1  0
 13 14  1  6
 13 15  1  0
 15 16  1  0
 16 17  1  0
 17 18  1  0
 18 19  1  0
 19 20  1  0
 20 21  1  6
 17 22  1  1
 22 23  1  0
 22 24  2  0
  6 25  1  0
 25 26  1  6
 25 27  1  0
 27 28  1  0
 28 29  1  1
 28 30  1  0
 30 31  1  6
 30 32  1  0
 32 33  1  1
 32 34  1  0
 34 35  1  0
 25  1  1  0
 32  1  1  0
 20  4  1  0
 20  9  1  0
 17 10  1  0
M  END
$$$$
