
     RDKit          3D

 35 39  0  0  0  0  0  0  0  0999 V2000
  164.4130  147.3302  127.5151 C   0  0  2  0  0  0  0  0  0  0  0  0
  164.7418  148.0538  128.7699 C   0  0  0  0  0  0  0  0  0  0  0  0
  165.6841  149.1846  128.4893 C   0  0  0  0  0  0  0  0  0  0  0  0
  165.0896  150.1116  127.4480 C   0  0  2  0  0  0  0  0  0  0  0  0
  163.9343  150.7922  128.1431 C   0  0  0  0  0  0  0  0  0  0  0  0
  164.7325  149.4098  126.1992 C   0  0  2  0  0  0  0  0  0  0  0  0
  164.2113  150.3356  125.1522 C   0  0  0  0  0  0  0  0  0  0  0  0
  164.4671  151.7604  125.4400 C   0  0  0  0  0  0  0  0  0  0  0  0
  165.3612  152.2103  126.3354 C   0  0  0  0  0  0  0  0  0  0  0  0
  165.5913  153.6612  126.6021 C   0  0  2  0  0  0  0  0  0  0  0  0
  165.0992  154.4919  125.4567 C   0  0  1  0  0  0  0  0  0  0  0  0
  163.6064  154.7522  125.6974 C   0  0  0  0  0  0  0  0  0  0  0  0
  165.7281  155.8212  125.2590 C   0  0  2  0  0  0  0  0  0  0  0  0
  165.3372  156.2488  123.8175 C   0  0  0  0  0  0  0  0  0  0  0  0
  167.2075  155.7674  125.3164 C   0  0  0  0  0  0  0  0  0  0  0  0
  167.7395  154.4193  125.7477 C   0  0  0  0  0  0  0  0  0  0  0  0
  166.9694  154.0309  126.9945 C   0  0  2  0  0  0  0  0  0  0  0  0
  167.6540  152.9523  127.7685 C   0  0  0  0  0  0  0  0  0  0  0  0
  166.8121  151.8019  128.1971 C   0  0  0  0  0  0  0  0  0  0  0  0
  166.1282  151.1772  127.0647 C   0  0  1  0  0  0  0  0  0  0  0  0
  167.1851  150.5227  126.1739 C   0  0  0  0  0  0  0  0  0  0  0  0
  166.9790  155.2357  127.9004 C   0  0  0  0  0  0  0  0  0  0  0  0
  168.1630  155.8672  128.1710 O   0  0  0  0  0  0  0  0  0  0  0  0
  165.9083  155.6229  128.3775 O   0  0  0  0  0  0  0  0  0  0  0  0
  163.9304  148.1381  126.3600 C   0  0  2  0  0  0  0  0  0  0  0  0
  162.5026  148.4781  126.2668 C   0  0  0  0  0  0  0  0  0  0  0  0
  164.2351  147.2804  125.1164 C   0  0  0  0  0  0  0  0  0  0  0  0
  164.1280  145.8376  125.3067 C   0  0  1  0  0  0  0  0  0  0  0  0
  165.4118  145.2377  125.2684 O   0  0  0  0  0  0  0  0  0  0  0  0
  163.3870  145.3413  126.4897 C   0  0  2  0  0  0  0  0  0  0  0  0
  162.0072  145.1295  126.2479 O   0  0  0  0  0  0  0  0  0  0  0  0
  163.6466  146.0717  127.7770 C   0  0  2  0  0  0  0  0  0  0  0  0
  162.3917  146.2606  128.5993 C   0  0  0  0  0  0  0  0  0  0  0  0
  164.5483  145.1917  128.6436 C   0  0  0  0  0  0  0  0  0  0  0  0
  165.8735  145.4539  128.2075 O   0  0  0  0  0  0  0  0  0  0  0  0
  1  2  1  1
  2  3  1  0
  3  4  1  0
  4  5  1  1
  4  6  1  0
  6  7  1  6
  7  8  1  0
  8  9  2  0
 10  9  1  6
 10 11  1  0
 11 12  1  1
 11 13  1  0
 13 14  1  6
 13 15  1  0
 15 16  1  0
 16 17  1  0
 17 18  1  0
 18 19  1  0
 19 20  1  0
 20 21  1  6
 17 22  1  1
 22 23  1  0
 22 24  2  0
  6 25  1  0
 25 26  1  1
 25 27  1  0
 27 28  1  0
 28 29  1  1
 28 30  1  0
 30 31  1  6
 30 32  1  0
 32 33  1  1
 32 34  1  0
 34 35  1  0
 25  1  1  0
 32  1  1  0
 20  4  1  0
 20  9  1  0
 17 10  1  0
M  END
$$$$
