
     RDKit          3D

 40 44  0  0  0  0  0  0  0  0999 V2000
  204.1366  134.0212  135.6274 C   0  0  2  0  0  0  0  0  0  0  0  0
  203.8614  133.1661  136.7873 C   0  0  0  0  0  0  0  0  0  0  0  0
  203.4795  131.7661  136.5132 C   0  0  0  0  0  0  0  0  0  0  0  0
  203.1894  130.9276  137.6095 C   0  0  0  0  0  0  0  0  0  0  0  0
  203.2829  131.4830  138.8573 F   0  0  0  0  0  0  0  0  0  0  0  0
  202.8326  129.6215  137.4210 C   0  0  0  0  0  0  0  0  0  0  0  0
  202.7323  129.0428  136.1743 C   0  0  0  0  0  0  0  0  0  0  0  0
  202.3688  127.6818  135.9617 N   0  0  0  0  0  0  0  0  0  0  0  0
  203.2764  126.7377  135.4291 C   0  0  0  0  0  0  0  0  0  0  0  0
  204.5120  126.9307  135.6221 O   0  0  0  0  0  0  0  0  0  0  0  0
  202.7397  125.5888  134.6836 C   0  0  0  0  0  0  0  0  0  0  0  0
  203.4060  124.3526  134.8804 N   0  0  0  0  0  0  0  0  0  0  0  0
  203.6674  123.9613  136.2194 C   0  0  0  0  0  0  0  0  0  0  0  0
  204.9684  123.1989  136.2381 C   0  0  0  0  0  0  0  0  0  0  0  0
  205.6210  123.4988  134.9110 C   0  0  0  0  0  0  0  0  0  0  0  0
  204.5263  124.0745  134.0566 C   0  0  0  0  0  0  0  0  0  0  0  0
  203.0141  129.8593  135.1091 C   0  0  0  0  0  0  0  0  0  0  0  0
  202.9476  129.3922  133.8119 O   0  0  0  0  0  0  0  0  0  0  0  0
  203.3844  131.2093  135.2825 C   0  0  0  0  0  0  0  0  0  0  0  0
  203.6735  132.0101  134.0948 C   0  0  0  0  0  0  0  0  0  0  0  0
  203.5884  131.5071  132.9588 O   0  0  0  0  0  0  0  0  0  0  0  0
  204.0578  133.3938  134.2919 C   0  0  0  0  0  0  0  0  0  0  0  0
  204.3665  134.1722  133.2540 C   0  0  0  0  0  0  0  0  0  0  0  0
  204.3112  133.6448  131.9766 O   0  0  0  0  0  0  0  0  0  0  0  0
  204.7554  135.5740  133.5546 C   0  0  2  0  0  0  0  0  0  0  0  0
  203.6741  136.3708  133.9215 O   0  0  0  0  0  0  0  0  0  0  0  0
  205.2764  136.1543  132.2898 C   0  0  0  0  0  0  0  0  0  0  0  0
  204.4703  136.2562  131.3366 O   0  0  0  0  0  0  0  0  0  0  0  0
  206.6427  136.5975  132.1123 C   0  0  0  0  0  0  0  0  0  0  0  0
  207.0089  137.5498  131.0582 C   0  0  0  0  0  0  0  0  0  0  0  0
  206.0518  137.8417  130.0513 N   0  0  0  0  0  0  0  0  0  0  0  0
  208.1356  138.1000  131.0350 O   0  0  0  0  0  0  0  0  0  0  0  0
  207.5567  136.1140  132.9350 C   0  0  0  0  0  0  0  0  0  0  0  0
  208.8792  136.5307  132.7784 O   0  0  0  0  0  0  0  0  0  0  0  0
  207.1408  135.1585  133.9788 C   0  0  1  0  0  0  0  0  0  0  0  0
  208.1640  134.9579  134.9871 N   0  0  0  0  0  0  0  0  0  0  0  0
  208.7881  136.2034  135.3072 C   0  0  0  0  0  0  0  0  0  0  0  0
  207.6947  134.2358  136.1445 C   0  0  0  0  0  0  0  0  0  0  0  0
  205.8214  135.5783  134.6318 C   0  0  2  0  0  0  0  0  0  0  0  0
  205.5645  134.6008  135.7278 C   0  0  0  0  0  0  0  0  0  0  0  0
  1  2  1  1
  2  3  1  0
  3  4  2  0
  4  5  1  0
  4  6  1  0
  6  7  2  0
  7  8  1  0
  8  9  1  0
  9 10  2  0
  9 11  1  0
 11 12  1  0
 12 13  1  0
 13 14  1  0
 14 15  1  0
 15 16  1  0
  7 17  1  0
 17 18  1  0
 17 19  2  0
 19 20  1  0
 20 21  2  0
 20 22  1  0
 22 23  2  0
 23 24  1  0
 23 25  1  0
 25 26  1  1
 25 27  1  0
 27 28  2  0
 27 29  1  0
 29 30  1  0
 30 31  1  0
 30 32  2  0
 29 33  2  0
 33 34  1  0
 33 35  1  0
 35 36  1  1
 36 37  1  0
 36 38  1  0
 35 39  1  0
 39 40  1  1
 22  1  1  0
 39 25  1  0
 40  1  1  0
 19  3  1  0
 16 12  1  0
M  END
$$$$
