
     RDKit          3D

 40 44  0  0  0  0  0  0  0  0999 V2000
  185.2982  162.4950  141.7581 C   0  0  2  0  0  0  0  0  0  0  0  0
  186.6516  163.0611  141.7705 C   0  0  0  0  0  0  0  0  0  0  0  0
  187.5052  162.7845  140.5975 C   0  0  0  0  0  0  0  0  0  0  0  0
  188.8181  163.2996  140.5926 C   0  0  0  0  0  0  0  0  0  0  0  0
  189.2053  164.0224  141.6889 F   0  0  0  0  0  0  0  0  0  0  0  0
  189.6558  163.0801  139.5348 C   0  0  0  0  0  0  0  0  0  0  0  0
  189.2866  162.3557  138.4221 C   0  0  0  0  0  0  0  0  0  0  0  0
  190.1451  162.1243  137.3091 N   0  0  0  0  0  0  0  0  0  0  0  0
  189.6426  161.9331  136.0015 C   0  0  0  0  0  0  0  0  0  0  0  0
  188.6375  162.6158  135.6482 O   0  0  0  0  0  0  0  0  0  0  0  0
  190.3104  160.9569  135.1270 C   0  0  0  0  0  0  0  0  0  0  0  0
  191.1933  161.4930  134.1553 N   0  0  0  0  0  0  0  0  0  0  0  0
  190.6120  162.1792  133.0574 C   0  0  0  0  0  0  0  0  0  0  0  0
  191.4771  161.9401  131.8455 C   0  0  0  0  0  0  0  0  0  0  0  0
  192.3687  160.7814  132.2193 C   0  0  0  0  0  0  0  0  0  0  0  0
  192.2597  160.6689  133.7144 C   0  0  0  0  0  0  0  0  0  0  0  0
  188.0098  161.8550  138.4283 C   0  0  0  0  0  0  0  0  0  0  0  0
  187.5267  161.1134  137.3692 O   0  0  0  0  0  0  0  0  0  0  0  0
  187.1302  162.0706  139.5097 C   0  0  0  0  0  0  0  0  0  0  0  0
  185.7840  161.5069  139.4353 C   0  0  0  0  0  0  0  0  0  0  0  0
  185.4300  160.8486  138.4392 O   0  0  0  0  0  0  0  0  0  0  0  0
  184.8916  161.7430  140.5529 C   0  0  0  0  0  0  0  0  0  0  0  0
  183.6393  161.2848  140.5366 C   0  0  0  0  0  0  0  0  0  0  0  0
  183.1972  160.5718  139.4369 O   0  0  0  0  0  0  0  0  0  0  0  0
  182.7970  161.5821  141.7235 C   0  0  2  0  0  0  0  0  0  0  0  0
  183.1375  160.8176  142.8363 O   0  0  0  0  0  0  0  0  0  0  0  0
  181.4077  161.1899  141.3714 C   0  0  0  0  0  0  0  0  0  0  0  0
  181.2000  159.9761  141.1430 O   0  0  0  0  0  0  0  0  0  0  0  0
  180.3071  162.1256  141.2823 C   0  0  0  0  0  0  0  0  0  0  0  0
  178.9126  161.6808  141.3819 C   0  0  0  0  0  0  0  0  0  0  0  0
  178.6600  160.3260  141.7217 N   0  0  0  0  0  0  0  0  0  0  0  0
  177.9579  162.4671  141.1750 O   0  0  0  0  0  0  0  0  0  0  0  0
  180.5993  163.4023  141.1069 C   0  0  0  0  0  0  0  0  0  0  0  0
  179.5505  164.3185  141.0189 O   0  0  0  0  0  0  0  0  0  0  0  0
  182.0160  163.8016  141.0118 C   0  0  1  0  0  0  0  0  0  0  0  0
  182.1981  165.2353  141.1356 N   0  0  0  0  0  0  0  0  0  0  0  0
  180.9503  165.9064  140.9460 C   0  0  0  0  0  0  0  0  0  0  0  0
  182.8820  165.6241  142.3448 C   0  0  0  0  0  0  0  0  0  0  0  0
  182.8786  163.0623  142.0379 C   0  0  2  0  0  0  0  0  0  0  0  0
  184.2546  163.6227  141.9129 C   0  0  0  0  0  0  0  0  0  0  0  0
  1  2  1  6
  2  3  1  0
  3  4  2  0
  4  5  1  0
  4  6  1  0
  6  7  2  0
  7  8  1  0
  8  9  1  0
  9 10  2  0
  9 11  1  0
 11 12  1  0
 12 13  1  0
 13 14  1  0
 14 15  1  0
 15 16  1  0
  7 17  1  0
 17 18  1  0
 17 19  2  0
 19 20  1  0
 20 21  2  0
 20 22  1  0
 22 23  2  0
 23 24  1  0
 23 25  1  0
 25 26  1  1
 25 27  1  0
 27 28  2  0
 27 29  1  0
 29 30  1  0
 30 31  1  0
 30 32  2  0
 29 33  2  0
 33 34  1  0
 33 35  1  0
 35 36  1  1
 36 37  1  0
 36 38  1  0
 35 39  1  0
 39 40  1  6
 22  1  1  0
 39 25  1  0
 40  1  1  0
 19  3  1  0
 16 12  1  0
M  END
$$$$
