
     RDKit          3D

 40 44  0  0  0  0  0  0  0  0999 V2000
  131.6707  164.2913  150.7095 C   0  0  2  0  0  0  0  0  0  0  0  0
  131.2879  165.4136  149.8456 C   0  0  0  0  0  0  0  0  0  0  0  0
  129.8801  165.4698  149.4031 C   0  0  0  0  0  0  0  0  0  0  0  0
  129.4898  166.5270  148.5551 C   0  0  0  0  0  0  0  0  0  0  0  0
  130.4576  167.4285  148.2016 F   0  0  0  0  0  0  0  0  0  0  0  0
  128.2006  166.6353  148.1136 C   0  0  0  0  0  0  0  0  0  0  0  0
  127.2114  165.7393  148.4569 C   0  0  0  0  0  0  0  0  0  0  0  0
  125.8623  165.8423  148.0110 N   0  0  0  0  0  0  0  0  0  0  0  0
  125.1784  164.7488  147.4321 C   0  0  0  0  0  0  0  0  0  0  0  0
  125.7839  164.0714  146.5513 O   0  0  0  0  0  0  0  0  0  0  0  0
  123.8082  164.4584  147.8814 C   0  0  0  0  0  0  0  0  0  0  0  0
  122.7717  164.7856  146.9706 N   0  0  0  0  0  0  0  0  0  0  0  0
  122.8131  166.0728  146.3742 C   0  0  0  0  0  0  0  0  0  0  0  0
  121.3936  166.5375  146.1659 C   0  0  0  0  0  0  0  0  0  0  0  0
  120.5488  165.6181  147.0135 C   0  0  0  0  0  0  0  0  0  0  0  0
  121.4439  164.4567  147.3444 C   0  0  0  0  0  0  0  0  0  0  0  0
  127.5923  164.7115  149.2812 C   0  0  0  0  0  0  0  0  0  0  0  0
  126.6893  163.7522  149.6931 O   0  0  0  0  0  0  0  0  0  0  0  0
  128.9171  164.5823  149.7478 C   0  0  0  0  0  0  0  0  0  0  0  0
  129.2393  163.4608  150.6274 C   0  0  0  0  0  0  0  0  0  0  0  0
  128.3607  162.6392  150.9497 O   0  0  0  0  0  0  0  0  0  0  0  0
  130.6043  163.3467  151.1018 C   0  0  0  0  0  0  0  0  0  0  0  0
  130.9597  162.3660  151.9327 C   0  0  0  0  0  0  0  0  0  0  0  0
  130.0077  161.4478  152.3372 O   0  0  0  0  0  0  0  0  0  0  0  0
  132.3788  162.3344  152.3707 C   0  0  2  0  0  0  0  0  0  0  0  0
  133.2458  161.8987  151.3721 O   0  0  0  0  0  0  0  0  0  0  0  0
  132.4693  161.3237  153.4562 C   0  0  0  0  0  0  0  0  0  0  0  0
  132.2153  160.1361  153.1499 O   0  0  0  0  0  0  0  0  0  0  0  0
  132.8297  161.6413  154.8215 C   0  0  0  0  0  0  0  0  0  0  0  0
  133.3419  160.6163  155.7375 C   0  0  0  0  0  0  0  0  0  0  0  0
  132.9767  159.2640  155.5078 N   0  0  0  0  0  0  0  0  0  0  0  0
  134.0849  160.9131  156.7031 O   0  0  0  0  0  0  0  0  0  0  0  0
  132.6816  162.8924  155.2203 C   0  0  0  0  0  0  0  0  0  0  0  0
  133.0244  163.2165  156.5336 O   0  0  0  0  0  0  0  0  0  0  0  0
  132.1623  163.8877  154.2637 C   0  0  1  0  0  0  0  0  0  0  0  0
  132.3457  165.2502  154.7260 N   0  0  0  0  0  0  0  0  0  0  0  0
  131.8754  165.3798  156.0697 C   0  0  0  0  0  0  0  0  0  0  0  0
  133.6878  165.7442  154.5366 C   0  0  0  0  0  0  0  0  0  0  0  0
  132.7785  163.7068  152.8740 C   0  0  2  0  0  0  0  0  0  0  0  0
  132.2587  164.8238  152.0344 C   0  0  0  0  0  0  0  0  0  0  0  0
  1  2  1  6
  2  3  1  0
  3  4  2  0
  4  5  1  0
  4  6  1  0
  6  7  2  0
  7  8  1  0
  8  9  1  0
  9 10  2  0
  9 11  1  0
 11 12  1  0
 12 13  1  0
 13 14  1  0
 14 15  1  0
 15 16  1  0
  7 17  1  0
 17 18  1  0
 17 19  2  0
 19 20  1  0
 20 21  2  0
 20 22  1  0
 22 23  2  0
 23 24  1  0
 23 25  1  0
 25 26  1  6
 25 27  1  0
 27 28  2  0
 27 29  1  0
 29 30  1  0
 30 31  1  0
 30 32  2  0
 29 33  2  0
 33 34  1  0
 33 35  1  0
 35 36  1  1
 36 37  1  0
 36 38  1  0
 35 39  1  0
 39 40  1  6
 22  1  1  0
 39 25  1  0
 40  1  1  0
 19  3  1  0
 16 12  1  0
M  END
$$$$
