
     RDKit          3D

 40 44  0  0  0  0  0  0  0  0999 V2000
  131.2329  162.5911  156.2729 C   0  0  2  0  0  0  0  0  0  0  0  0
  130.3067  161.8407  157.1281 C   0  0  0  0  0  0  0  0  0  0  0  0
  129.7874  160.5643  156.5966 C   0  0  0  0  0  0  0  0  0  0  0  0
  128.8792  159.8326  157.3895 C   0  0  0  0  0  0  0  0  0  0  0  0
  128.5433  160.3690  158.6035 F   0  0  0  0  0  0  0  0  0  0  0  0
  128.3652  158.6431  156.9541 C   0  0  0  0  0  0  0  0  0  0  0  0
  128.6896  158.0856  155.7363 C   0  0  0  0  0  0  0  0  0  0  0  0
  128.1683  156.8439  155.2715 N   0  0  0  0  0  0  0  0  0  0  0  0
  128.3686  156.3959  153.9457 C   0  0  0  0  0  0  0  0  0  0  0  0
  128.1794  157.2227  153.0067 O   0  0  0  0  0  0  0  0  0  0  0  0
  128.7835  155.0013  153.7294 C   0  0  0  0  0  0  0  0  0  0  0  0
  127.7463  154.0826  153.4281 N   0  0  0  0  0  0  0  0  0  0  0  0
  127.2311  154.0950  152.1057 C   0  0  0  0  0  0  0  0  0  0  0  0
  125.7629  153.7573  152.1728 C   0  0  0  0  0  0  0  0  0  0  0  0
  125.3859  153.9212  153.6247 C   0  0  0  0  0  0  0  0  0  0  0  0
  126.6922  153.9541  154.3679 C   0  0  0  0  0  0  0  0  0  0  0  0
  129.5725  158.7984  154.9660 C   0  0  0  0  0  0  0  0  0  0  0  0
  129.9724  158.3408  153.7266 O   0  0  0  0  0  0  0  0  0  0  0  0
  130.1142  160.0273  155.3972 C   0  0  0  0  0  0  0  0  0  0  0  0
  131.0527  160.7213  154.5182 C   0  0  0  0  0  0  0  0  0  0  0  0
  131.3591  160.2355  153.4132 O   0  0  0  0  0  0  0  0  0  0  0  0
  131.6039  161.9801  154.9797 C   0  0  0  0  0  0  0  0  0  0  0  0
  132.4902  162.6499  154.2420 C   0  0  0  0  0  0  0  0  0  0  0  0
  132.8783  162.1314  153.0200 O   0  0  0  0  0  0  0  0  0  0  0  0
  133.0046  163.9267  154.8005 C   0  0  2  0  0  0  0  0  0  0  0  0
  132.0717  164.9588  154.7448 O   0  0  0  0  0  0  0  0  0  0  0  0
  134.1318  164.3511  153.9304 C   0  0  0  0  0  0  0  0  0  0  0  0
  133.8588  164.6243  152.7389 O   0  0  0  0  0  0  0  0  0  0  0  0
  135.5011  164.4611  154.3862 C   0  0  0  0  0  0  0  0  0  0  0  0
  136.4825  165.2864  153.6735 C   0  0  0  0  0  0  0  0  0  0  0  0
  136.6127  165.1176  152.2701 N   0  0  0  0  0  0  0  0  0  0  0  0
  137.1948  166.1242  154.2762 O   0  0  0  0  0  0  0  0  0  0  0  0
  135.8424  163.7899  155.4721 C   0  0  0  0  0  0  0  0  0  0  0  0
  137.1586  163.8846  155.9259 O   0  0  0  0  0  0  0  0  0  0  0  0
  134.8214  162.9729  156.1542 C   0  0  1  0  0  0  0  0  0  0  0  0
  135.2395  162.5539  157.4784 N   0  0  0  0  0  0  0  0  0  0  0  0
  136.6526  162.3396  157.5017 C   0  0  0  0  0  0  0  0  0  0  0  0
  134.7728  163.4250  158.5294 C   0  0  0  0  0  0  0  0  0  0  0  0
  133.4749  163.6980  156.2229 C   0  0  2  0  0  0  0  0  0  0  0  0
  132.5658  162.8234  157.0174 C   0  0  0  0  0  0  0  0  0  0  0  0
  1  2  1  1
  2  3  1  0
  3  4  2  0
  4  5  1  0
  4  6  1  0
  6  7  2  0
  7  8  1  0
  8  9  1  0
  9 10  2  0
  9 11  1  0
 11 12  1  0
 12 13  1  0
 13 14  1  0
 14 15  1  0
 15 16  1  0
  7 17  1  0
 17 18  1  0
 17 19  2  0
 19 20  1  0
 20 21  2  0
 20 22  1  0
 22 23  2  0
 23 24  1  0
 23 25  1  0
 25 26  1  1
 25 27  1  0
 27 28  2  0
 27 29  1  0
 29 30  1  0
 30 31  1  0
 30 32  2  0
 29 33  2  0
 33 34  1  0
 33 35  1  0
 35 36  1  1
 36 37  1  0
 36 38  1  0
 35 39  1  0
 39 40  1  1
 22  1  1  0
 39 25  1  0
 40  1  1  0
 19  3  1  0
 16 12  1  0
M  END
$$$$
