
     RDKit          3D

 40 44  0  0  0  0  0  0  0  0999 V2000
  130.0054  142.4064  135.6285 C   0  0  2  0  0  0  0  0  0  0  0  0
  130.9858  141.3206  135.5186 C   0  0  0  0  0  0  0  0  0  0  0  0
  130.4743  139.9919  135.1261 C   0  0  0  0  0  0  0  0  0  0  0  0
  131.3923  138.9254  135.0330 C   0  0  0  0  0  0  0  0  0  0  0  0
  132.7012  139.2064  135.3191 F   0  0  0  0  0  0  0  0  0  0  0  0
  130.9808  137.6727  134.6720 C   0  0  0  0  0  0  0  0  0  0  0  0
  129.6689  137.3682  134.3801 C   0  0  0  0  0  0  0  0  0  0  0  0
  129.2256  136.0700  133.9956 N   0  0  0  0  0  0  0  0  0  0  0  0
  128.5741  135.8346  132.7632 C   0  0  0  0  0  0  0  0  0  0  0  0
  128.3627  136.8267  132.0066 O   0  0  0  0  0  0  0  0  0  0  0  0
  128.1790  134.4579  132.4279 C   0  0  0  0  0  0  0  0  0  0  0  0
  126.9701  134.3167  131.7003 N   0  0  0  0  0  0  0  0  0  0  0  0
  125.8429  133.8175  132.4037 C   0  0  0  0  0  0  0  0  0  0  0  0
  125.0171  132.9995  131.4430 C   0  0  0  0  0  0  0  0  0  0  0  0
  125.9208  132.7469  130.2612 C   0  0  0  0  0  0  0  0  0  0  0  0
  127.0468  133.7316  130.4109 C   0  0  0  0  0  0  0  0  0  0  0  0
  128.7771  138.4061  134.4715 C   0  0  0  0  0  0  0  0  0  0  0  0
  127.4356  138.2229  134.2029 O   0  0  0  0  0  0  0  0  0  0  0  0
  129.1816  139.7056  134.8419 C   0  0  0  0  0  0  0  0  0  0  0  0
  128.1691  140.7570  134.9105 C   0  0  0  0  0  0  0  0  0  0  0  0
  126.9778  140.5034  134.6512 O   0  0  0  0  0  0  0  0  0  0  0  0
  128.6035  142.0877  135.2874 C   0  0  0  0  0  0  0  0  0  0  0  0
  127.7377  143.1007  135.3385 C   0  0  0  0  0  0  0  0  0  0  0  0
  126.4094  142.8676  135.0313 O   0  0  0  0  0  0  0  0  0  0  0  0
  128.2765  144.4292  135.7277 C   0  0  2  0  0  0  0  0  0  0  0  0
  128.5709  144.5192  137.0856 O   0  0  0  0  0  0  0  0  0  0  0  0
  127.1957  145.4185  135.4804 C   0  0  0  0  0  0  0  0  0  0  0  0
  126.1498  145.2998  136.1591 O   0  0  0  0  0  0  0  0  0  0  0  0
  127.2938  146.4900  134.5123 C   0  0  0  0  0  0  0  0  0  0  0  0
  126.4439  147.6825  134.5999 C   0  0  0  0  0  0  0  0  0  0  0  0
  125.3246  147.6499  135.4723 N   0  0  0  0  0  0  0  0  0  0  0  0
  126.6885  148.7121  133.9269 O   0  0  0  0  0  0  0  0  0  0  0  0
  128.1788  146.3596  133.5397 C   0  0  0  0  0  0  0  0  0  0  0  0
  128.2870  147.3832  132.5976 O   0  0  0  0  0  0  0  0  0  0  0  0
  129.0104  145.1423  133.4926 C   0  0  1  0  0  0  0  0  0  0  0  0
  130.1313  145.2708  132.5810 N   0  0  0  0  0  0  0  0  0  0  0  0
  130.5855  146.6258  132.5501 C   0  0  0  0  0  0  0  0  0  0  0  0
  131.1846  144.3169  132.8294 C   0  0  0  0  0  0  0  0  0  0  0  0
  129.4983  144.7403  134.8869 C   0  0  2  0  0  0  0  0  0  0  0  0
  130.4030  143.5709  134.6954 C   0  0  0  0  0  0  0  0  0  0  0  0
  1  2  1  6
  2  3  1  0
  3  4  2  0
  4  5  1  0
  4  6  1  0
  6  7  2  0
  7  8  1  0
  8  9  1  0
  9 10  2  0
  9 11  1  0
 11 12  1  0
 12 13  1  0
 13 14  1  0
 14 15  1  0
 15 16  1  0
  7 17  1  0
 17 18  1  0
 17 19  2  0
 19 20  1  0
 20 21  2  0
 20 22  1  0
 22 23  2  0
 23 24  1  0
 23 25  1  0
 25 26  1  1
 25 27  1  0
 27 28  2  0
 27 29  1  0
 29 30  1  0
 30 31  1  0
 30 32  2  0
 29 33  2  0
 33 34  1  0
 33 35  1  0
 35 36  1  6
 36 37  1  0
 36 38  1  0
 35 39  1  0
 39 40  1  6
 22  1  1  0
 39 25  1  0
 40  1  1  0
 19  3  1  0
 16 12  1  0
M  END
$$$$
