
     RDKit          3D

 40 44  0  0  0  0  0  0  0  0999 V2000
  172.4932  163.9024  108.4245 C   0  0  2  0  0  0  0  0  0  0  0  0
  172.5233  162.5199  107.9344 C   0  0  0  0  0  0  0  0  0  0  0  0
  173.5787  162.1763  106.9602 C   0  0  0  0  0  0  0  0  0  0  0  0
  173.6178  160.8593  106.4571 C   0  0  0  0  0  0  0  0  0  0  0  0
  172.6624  159.9918  106.9139 F   0  0  0  0  0  0  0  0  0  0  0  0
  174.5720  160.4791  105.5550 C   0  0  0  0  0  0  0  0  0  0  0  0
  175.5423  161.3359  105.0821 C   0  0  0  0  0  0  0  0  0  0  0  0
  176.5474  160.9532  104.1478 N   0  0  0  0  0  0  0  0  0  0  0  0
  177.5297  161.8607  103.6896 C   0  0  0  0  0  0  0  0  0  0  0  0
  177.4449  163.0653  104.0677 O   0  0  0  0  0  0  0  0  0  0  0  0
  178.5915  161.3598  102.8033 C   0  0  0  0  0  0  0  0  0  0  0  0
  179.5963  162.2943  102.4452 N   0  0  0  0  0  0  0  0  0  0  0  0
  180.0827  163.1493  103.4683 C   0  0  0  0  0  0  0  0  0  0  0  0
  180.4296  164.4768  102.8426 C   0  0  0  0  0  0  0  0  0  0  0  0
  179.7661  164.4599  101.4873 C   0  0  0  0  0  0  0  0  0  0  0  0
  179.4164  163.0190  101.2397 C   0  0  0  0  0  0  0  0  0  0  0  0
  175.5028  162.6164  105.5717 C   0  0  0  0  0  0  0  0  0  0  0  0
  176.4229  163.5643  105.1717 O   0  0  0  0  0  0  0  0  0  0  0  0
  174.5268  163.0282  106.5032 C   0  0  0  0  0  0  0  0  0  0  0  0
  174.5578  164.4093  106.9794 C   0  0  0  0  0  0  0  0  0  0  0  0
  175.4256  165.2003  106.5646 O   0  0  0  0  0  0  0  0  0  0  0  0
  173.5508  164.8138  107.9404 C   0  0  0  0  0  0  0  0  0  0  0  0
  173.5404  166.0500  108.4406 C   0  0  0  0  0  0  0  0  0  0  0  0
  174.5036  166.9521  108.0269 O   0  0  0  0  0  0  0  0  0  0  0  0
  172.4747  166.3701  109.4248 C   0  0  2  0  0  0  0  0  0  0  0  0
  171.2210  166.5207  108.8380 O   0  0  0  0  0  0  0  0  0  0  0  0
  172.8127  167.6954  110.0056 C   0  0  0  0  0  0  0  0  0  0  0  0
  172.8147  168.6747  109.2246 O   0  0  0  0  0  0  0  0  0  0  0  0
  173.1327  167.9025  111.4018 C   0  0  0  0  0  0  0  0  0  0  0  0
  173.0181  169.2248  112.0267 C   0  0  0  0  0  0  0  0  0  0  0  0
  173.2862  170.3708  111.2330 N   0  0  0  0  0  0  0  0  0  0  0  0
  172.6920  169.3544  113.2307 O   0  0  0  0  0  0  0  0  0  0  0  0
  173.5345  166.8559  112.1013 C   0  0  0  0  0  0  0  0  0  0  0  0
  173.8471  167.0373  113.4491 O   0  0  0  0  0  0  0  0  0  0  0  0
  173.6349  165.5467  111.4294 C   0  0  1  0  0  0  0  0  0  0  0  0
  173.7787  164.4506  112.3684 N   0  0  0  0  0  0  0  0  0  0  0  0
  173.4042  164.8764  113.6806 C   0  0  0  0  0  0  0  0  0  0  0  0
  173.1148  163.2419  111.9448 C   0  0  0  0  0  0  0  0  0  0  0  0
  172.4455  165.3003  110.4976 C   0  0  2  0  0  0  0  0  0  0  0  0
  172.6080  163.9175  109.9644 C   0  0  0  0  0  0  0  0  0  0  0  0
  1  2  1  6
  2  3  1  0
  3  4  2  0
  4  5  1  0
  4  6  1  0
  6  7  2  0
  7  8  1  0
  8  9  1  0
  9 10  2  0
  9 11  1  0
 11 12  1  0
 12 13  1  0
 13 14  1  0
 14 15  1  0
 15 16  1  0
  7 17  1  0
 17 18  1  0
 17 19  2  0
 19 20  1  0
 20 21  2  0
 20 22  1  0
 22 23  2  0
 23 24  1  0
 23 25  1  0
 25 26  1  6
 25 27  1  0
 27 28  2  0
 27 29  1  0
 29 30  1  0
 30 31  1  0
 30 32  2  0
 29 33  2  0
 33 34  1  0
 33 35  1  0
 35 36  1  1
 36 37  1  0
 36 38  1  0
 35 39  1  0
 39 40  1  6
 22  1  1  0
 39 25  1  0
 40  1  1  0
 19  3  1  0
 16 12  1  0
M  END
$$$$
