
     RDKit          3D

 40 44  0  0  0  0  0  0  0  0999 V2000
  129.3163  141.5853  133.2754 C   0  0  2  0  0  0  0  0  0  0  0  0
  130.3156  142.3243  134.0550 C   0  0  0  0  0  0  0  0  0  0  0  0
  129.9919  143.7212  134.4083 C   0  0  0  0  0  0  0  0  0  0  0  0
  130.9438  144.4613  135.1398 C   0  0  0  0  0  0  0  0  0  0  0  0
  132.1087  143.8213  135.4677 F   0  0  0  0  0  0  0  0  0  0  0  0
  130.7017  145.7578  135.4992 C   0  0  0  0  0  0  0  0  0  0  0  0
  129.5366  146.4207  135.1795 C   0  0  0  0  0  0  0  0  0  0  0  0
  129.2665  147.7688  135.5526 N   0  0  0  0  0  0  0  0  0  0  0  0
  128.5064  148.6354  134.7341 C   0  0  0  0  0  0  0  0  0  0  0  0
  128.1793  148.2260  133.5823 O   0  0  0  0  0  0  0  0  0  0  0  0
  128.1385  149.9585  135.2613 C   0  0  0  0  0  0  0  0  0  0  0  0
  127.9763  150.9886  134.3004 N   0  0  0  0  0  0  0  0  0  0  0  0
  129.0771  151.2600  133.4467 C   0  0  0  0  0  0  0  0  0  0  0  0
  129.0801  152.7372  133.1429 C   0  0  0  0  0  0  0  0  0  0  0  0
  128.1541  153.3521  134.1636 C   0  0  0  0  0  0  0  0  0  0  0  0
  127.3763  152.1985  134.7328 C   0  0  0  0  0  0  0  0  0  0  0  0
  128.6119  145.7001  134.4677 C   0  0  0  0  0  0  0  0  0  0  0  0
  127.4070  146.2574  134.0899 O   0  0  0  0  0  0  0  0  0  0  0  0
  128.8425  144.3615  134.0877 C   0  0  0  0  0  0  0  0  0  0  0  0
  127.8033  143.6625  133.3348 C   0  0  0  0  0  0  0  0  0  0  0  0
  126.7431  144.2430  133.0350 O   0  0  0  0  0  0  0  0  0  0  0  0
  128.0548  142.2857  132.9574 C   0  0  0  0  0  0  0  0  0  0  0  0
  127.1364  141.5789  132.2975 C   0  0  0  0  0  0  0  0  0  0  0  0
  125.9338  142.1777  131.9688 O   0  0  0  0  0  0  0  0  0  0  0  0
  127.4810  140.1740  131.9601 C   0  0  2  0  0  0  0  0  0  0  0  0
  128.4048  140.0754  130.9230 O   0  0  0  0  0  0  0  0  0  0  0  0
  126.2364  139.5370  131.4568 C   0  0  0  0  0  0  0  0  0  0  0  0
  125.7501  139.9973  130.3983 O   0  0  0  0  0  0  0  0  0  0  0  0
  125.5746  138.4332  132.1188 C   0  0  0  0  0  0  0  0  0  0  0  0
  124.6475  137.5526  131.3998 C   0  0  0  0  0  0  0  0  0  0  0  0
  124.9528  137.2039  130.0581 N   0  0  0  0  0  0  0  0  0  0  0  0
  123.6078  137.1111  131.9445 O   0  0  0  0  0  0  0  0  0  0  0  0
  125.8330  138.2421  133.4006 C   0  0  0  0  0  0  0  0  0  0  0  0
  125.2038  137.1823  134.0548 O   0  0  0  0  0  0  0  0  0  0  0  0
  126.7715  139.1540  134.0812 C   0  0  1  0  0  0  0  0  0  0  0  0
  127.1974  138.6495  135.3727 N   0  0  0  0  0  0  0  0  0  0  0  0
  128.1396  137.5887  135.1985 C   0  0  0  0  0  0  0  0  0  0  0  0
  127.6544  139.6829  136.2695 C   0  0  0  0  0  0  0  0  0  0  0  0
  127.9854  139.4693  133.2033 C   0  0  2  0  0  0  0  0  0  0  0  0
  128.8989  140.3059  134.0329 C   0  0  0  0  0  0  0  0  0  0  0  0
  1  2  1  1
  2  3  1  0
  3  4  2  0
  4  5  1  0
  4  6  1  0
  6  7  2  0
  7  8  1  0
  8  9  1  0
  9 10  2  0
  9 11  1  0
 11 12  1  0
 12 13  1  0
 13 14  1  0
 14 15  1  0
 15 16  1  0
  7 17  1  0
 17 18  1  0
 17 19  2  0
 19 20  1  0
 20 21  2  0
 20 22  1  0
 22 23  2  0
 23 24  1  0
 23 25  1  0
 25 26  1  6
 25 27  1  0
 27 28  2  0
 27 29  1  0
 29 30  1  0
 30 31  1  0
 30 32  2  0
 29 33  2  0
 33 34  1  0
 33 35  1  0
 35 36  1  1
 36 37  1  0
 36 38  1  0
 35 39  1  0
 39 40  1  1
 22  1  1  0
 39 25  1  0
 40  1  1  0
 19  3  1  0
 16 12  1  0
M  END
$$$$
