
     RDKit          3D

 40 44  0  0  0  0  0  0  0  0999 V2000
  168.8175  151.2662  126.4747 C   0  0  2  0  0  0  0  0  0  0  0  0
  169.2103  151.5028  125.0810 C   0  0  0  0  0  0  0  0  0  0  0  0
  169.6591  150.3310  124.3023 C   0  0  0  0  0  0  0  0  0  0  0  0
  170.0620  150.5335  122.9661 C   0  0  0  0  0  0  0  0  0  0  0  0
  170.0077  151.8156  122.4891 F   0  0  0  0  0  0  0  0  0  0  0  0
  170.4852  149.4885  122.1929 C   0  0  0  0  0  0  0  0  0  0  0  0
  170.5477  148.1910  122.6530 C   0  0  0  0  0  0  0  0  0  0  0  0
  170.9794  147.0905  121.8579 N   0  0  0  0  0  0  0  0  0  0  0  0
  172.3459  146.7551  121.7207 C   0  0  0  0  0  0  0  0  0  0  0  0
  173.1157  147.6117  121.1964 O   0  0  0  0  0  0  0  0  0  0  0  0
  172.7975  145.4367  122.1916 C   0  0  0  0  0  0  0  0  0  0  0  0
  174.1933  145.1959  122.1242 N   0  0  0  0  0  0  0  0  0  0  0  0
  174.6153  143.8450  122.0186 C   0  0  0  0  0  0  0  0  0  0  0  0
  175.9256  143.7057  122.7521 C   0  0  0  0  0  0  0  0  0  0  0  0
  176.0399  144.9514  123.5962 C   0  0  0  0  0  0  0  0  0  0  0  0
  175.0240  145.9037  123.0297 C   0  0  0  0  0  0  0  0  0  0  0  0
  170.1561  147.9955  123.9527 C   0  0  0  0  0  0  0  0  0  0  0  0
  170.1754  146.7395  124.5248 O   0  0  0  0  0  0  0  0  0  0  0  0
  169.7161  149.0602  124.7666 C   0  0  0  0  0  0  0  0  0  0  0  0
  169.3111  148.7659  126.1394 C   0  0  0  0  0  0  0  0  0  0  0  0
  169.3604  147.6005  126.5756 O   0  0  0  0  0  0  0  0  0  0  0  0
  168.8565  149.8711  126.9598 C   0  0  0  0  0  0  0  0  0  0  0  0
  168.4420  149.6686  128.2111 C   0  0  0  0  0  0  0  0  0  0  0  0
  168.4548  148.3848  128.7254 O   0  0  0  0  0  0  0  0  0  0  0  0
  167.9876  150.8607  128.9721 C   0  0  2  0  0  0  0  0  0  0  0  0
  169.0385  151.6794  129.3773 O   0  0  0  0  0  0  0  0  0  0  0  0
  167.3604  150.3573  130.2215 C   0  0  0  0  0  0  0  0  0  0  0  0
  168.1023  149.7448  131.0234 O   0  0  0  0  0  0  0  0  0  0  0  0
  165.9619  150.5384  130.5477 C   0  0  0  0  0  0  0  0  0  0  0  0
  165.4787  150.4454  131.9297 C   0  0  0  0  0  0  0  0  0  0  0  0
  165.6493  149.2180  132.6222 N   0  0  0  0  0  0  0  0  0  0  0  0
  164.9272  151.4180  132.4977 O   0  0  0  0  0  0  0  0  0  0  0  0
  165.1277  150.7915  129.5546 C   0  0  0  0  0  0  0  0  0  0  0  0
  163.7758  150.9690  129.8509 O   0  0  0  0  0  0  0  0  0  0  0  0
  165.6600  150.8748  128.1816 C   0  0  1  0  0  0  0  0  0  0  0  0
  164.7108  151.4581  127.2528 N   0  0  0  0  0  0  0  0  0  0  0  0
  164.0939  152.6068  127.8387 C   0  0  0  0  0  0  0  0  0  0  0  0
  165.2675  151.7085  125.9457 C   0  0  0  0  0  0  0  0  0  0  0  0
  166.9875  151.6362  128.1385 C   0  0  2  0  0  0  0  0  0  0  0  0
  167.3657  151.7416  126.7002 C   0  0  0  0  0  0  0  0  0  0  0  0
  1  2  1  6
  2  3  1  0
  3  4  2  0
  4  5  1  0
  4  6  1  0
  6  7  2  0
  7  8  1  0
  8  9  1  0
  9 10  2  0
  9 11  1  0
 11 12  1  0
 12 13  1  0
 13 14  1  0
 14 15  1  0
 15 16  1  0
  7 17  1  0
 17 18  1  0
 17 19  2  0
 19 20  1  0
 20 21  2  0
 20 22  1  0
 22 23  2  0
 23 24  1  0
 23 25  1  0
 25 26  1  1
 25 27  1  0
 27 28  2  0
 27 29  1  0
 29 30  1  0
 30 31  1  0
 30 32  2  0
 29 33  2  0
 33 34  1  0
 33 35  1  0
 35 36  1  6
 36 37  1  0
 36 38  1  0
 35 39  1  0
 39 40  1  6
 22  1  1  0
 39 25  1  0
 40  1  1  0
 19  3  1  0
 16 12  1  0
M  END
$$$$
