
     RDKit          3D

 40 44  0  0  0  0  0  0  0  0999 V2000
  190.0697  157.3981  124.7399 C   0  0  2  0  0  0  0  0  0  0  0  0
  189.5896  157.5083  126.1219 C   0  0  0  0  0  0  0  0  0  0  0  0
  190.2739  158.4839  126.9941 C   0  0  0  0  0  0  0  0  0  0  0  0
  189.8460  158.5955  128.3333 C   0  0  0  0  0  0  0  0  0  0  0  0
  188.8191  157.7800  128.7266 F   0  0  0  0  0  0  0  0  0  0  0  0
  190.4378  159.4820  129.1893 C   0  0  0  0  0  0  0  0  0  0  0  0
  191.4723  160.3116  128.8143 C   0  0  0  0  0  0  0  0  0  0  0  0
  192.0945  161.2453  129.6921 N   0  0  0  0  0  0  0  0  0  0  0  0
  191.8868  161.2133  131.0901 C   0  0  0  0  0  0  0  0  0  0  0  0
  192.9063  161.1965  131.8396 O   0  0  0  0  0  0  0  0  0  0  0  0
  190.5056  161.2013  131.5961 C   0  0  0  0  0  0  0  0  0  0  0  0
  190.3567  161.3062  133.0024 N   0  0  0  0  0  0  0  0  0  0  0  0
  190.6917  162.5491  133.6003 C   0  0  0  0  0  0  0  0  0  0  0  0
  191.2577  162.2712  134.9703 C   0  0  0  0  0  0  0  0  0  0  0  0
  191.5768  160.7964  134.9740 C   0  0  0  0  0  0  0  0  0  0  0  0
  190.8370  160.2318  133.7935 C   0  0  0  0  0  0  0  0  0  0  0  0
  191.8879  160.2018  127.5119 C   0  0  0  0  0  0  0  0  0  0  0  0
  192.9161  160.9806  127.0206 O   0  0  0  0  0  0  0  0  0  0  0  0
  191.2901  159.2937  126.6131 C   0  0  0  0  0  0  0  0  0  0  0  0
  191.7887  159.2426  125.2404 C   0  0  0  0  0  0  0  0  0  0  0  0
  192.7231  159.9831  124.8807 O   0  0  0  0  0  0  0  0  0  0  0  0
  191.1592  158.3077  124.3289 C   0  0  0  0  0  0  0  0  0  0  0  0
  191.5431  158.2320  123.0540 C   0  0  0  0  0  0  0  0  0  0  0  0
  192.5594  159.0565  122.6066 O   0  0  0  0  0  0  0  0  0  0  0  0
  190.8351  157.2494  122.1939 C   0  0  2  0  0  0  0  0  0  0  0  0
  191.2034  155.9326  122.4570 O   0  0  0  0  0  0  0  0  0  0  0  0
  191.2617  157.5186  120.7962 C   0  0  0  0  0  0  0  0  0  0  0  0
  192.4729  157.3457  120.5281 O   0  0  0  0  0  0  0  0  0  0  0  0
  190.3617  157.9615  119.7528 C   0  0  0  0  0  0  0  0  0  0  0  0
  190.6887  157.7875  118.3333 C   0  0  0  0  0  0  0  0  0  0  0  0
  191.9796  157.3048  117.9934 N   0  0  0  0  0  0  0  0  0  0  0  0
  189.8582  158.0543  117.4323 O   0  0  0  0  0  0  0  0  0  0  0  0
  189.2281  158.5321  120.1212 C   0  0  0  0  0  0  0  0  0  0  0  0
  188.3484  158.9651  119.1284 O   0  0  0  0  0  0  0  0  0  0  0  0
  188.9435  158.6859  121.5603 C   0  0  1  0  0  0  0  0  0  0  0  0
  187.5585  159.0308  121.8183 N   0  0  0  0  0  0  0  0  0  0  0  0
  186.9306  159.4739  120.6130 C   0  0  0  0  0  0  0  0  0  0  0  0
  186.8261  157.9911  122.4995 C   0  0  0  0  0  0  0  0  0  0  0  0
  189.3390  157.4345  122.3485 C   0  0  2  0  0  0  0  0  0  0  0  0
  188.9106  157.6712  123.7568 C   0  0  0  0  0  0  0  0  0  0  0  0
  1  2  1  1
  2  3  1  0
  3  4  2  0
  4  5  1  0
  4  6  1  0
  6  7  2  0
  7  8  1  0
  8  9  1  0
  9 10  2  0
  9 11  1  0
 11 12  1  0
 12 13  1  0
 13 14  1  0
 14 15  1  0
 15 16  1  0
  7 17  1  0
 17 18  1  0
 17 19  2  0
 19 20  1  0
 20 21  2  0
 20 22  1  0
 22 23  2  0
 23 24  1  0
 23 25  1  0
 25 26  1  1
 25 27  1  0
 27 28  2  0
 27 29  1  0
 29 30  1  0
 30 31  1  0
 30 32  2  0
 29 33  2  0
 33 34  1  0
 33 35  1  0
 35 36  1  6
 36 37  1  0
 36 38  1  0
 35 39  1  0
 39 40  1  1
 22  1  1  0
 39 25  1  0
 40  1  1  0
 19  3  1  0
 16 12  1  0
M  END
$$$$
