
     RDKit          3D

 40 44  0  0  0  0  0  0  0  0999 V2000
  130.3734  143.0277  133.4142 C   0  0  2  0  0  0  0  0  0  0  0  0
  130.7863  143.8575  134.5513 C   0  0  0  0  0  0  0  0  0  0  0  0
  130.1261  145.1703  134.6986 C   0  0  0  0  0  0  0  0  0  0  0  0
  130.5189  145.9971  135.7715 C   0  0  0  0  0  0  0  0  0  0  0  0
  131.4946  145.5147  136.6018 F   0  0  0  0  0  0  0  0  0  0  0  0
  129.9433  147.2223  135.9627 C   0  0  0  0  0  0  0  0  0  0  0  0
  128.9603  147.7269  135.1393 C   0  0  0  0  0  0  0  0  0  0  0  0
  128.3458  148.9981  135.3292 N   0  0  0  0  0  0  0  0  0  0  0  0
  126.9537  149.1349  135.5339 C   0  0  0  0  0  0  0  0  0  0  0  0
  126.2708  148.0799  135.6818 O   0  0  0  0  0  0  0  0  0  0  0  0
  126.3765  150.4876  135.5639 C   0  0  0  0  0  0  0  0  0  0  0  0
  125.2758  150.6758  136.4378 N   0  0  0  0  0  0  0  0  0  0  0  0
  125.5341  150.6098  137.8318 C   0  0  0  0  0  0  0  0  0  0  0  0
  124.3204  150.0195  138.5048 C   0  0  0  0  0  0  0  0  0  0  0  0
  123.5093  149.4069  137.3895 C   0  0  0  0  0  0  0  0  0  0  0  0
  124.0694  149.9987  136.1262 C   0  0  0  0  0  0  0  0  0  0  0  0
  128.5795  146.9222  134.0961 C   0  0  0  0  0  0  0  0  0  0  0  0
  127.6040  147.3200  133.2043 O   0  0  0  0  0  0  0  0  0  0  0  0
  129.1608  145.6549  133.8819 C   0  0  0  0  0  0  0  0  0  0  0  0
  128.6945  144.8574  132.7497 C   0  0  0  0  0  0  0  0  0  0  0  0
  127.8075  145.2946  131.9928 O   0  0  0  0  0  0  0  0  0  0  0  0
  129.2989  143.5553  132.5479 C   0  0  0  0  0  0  0  0  0  0  0  0
  128.8982  142.7622  131.5535 C   0  0  0  0  0  0  0  0  0  0  0  0
  127.8961  143.1985  130.7060 O   0  0  0  0  0  0  0  0  0  0  0  0
  129.5708  141.4435  131.4300 C   0  0  2  0  0  0  0  0  0  0  0  0
  130.8655  141.5393  130.9268 O   0  0  0  0  0  0  0  0  0  0  0  0
  128.8019  140.6632  130.4261 C   0  0  0  0  0  0  0  0  0  0  0  0
  128.7798  141.1082  129.2556 O   0  0  0  0  0  0  0  0  0  0  0  0
  128.0927  139.4391  130.7319 C   0  0  0  0  0  0  0  0  0  0  0  0
  127.7379  138.4763  129.6834 C   0  0  0  0  0  0  0  0  0  0  0  0
  127.8944  138.8677  128.3280 N   0  0  0  0  0  0  0  0  0  0  0  0
  127.3062  137.3326  129.9633 O   0  0  0  0  0  0  0  0  0  0  0  0
  127.7721  139.2142  131.9939 C   0  0  0  0  0  0  0  0  0  0  0  0
  127.0883  138.0388  132.3069 O   0  0  0  0  0  0  0  0  0  0  0  0
  128.1494  140.2117  133.0128 C   0  0  1  0  0  0  0  0  0  0  0  0
  128.0202  139.7009  134.3642 N   0  0  0  0  0  0  0  0  0  0  0  0
  126.7359  139.0986  134.5402 C   0  0  0  0  0  0  0  0  0  0  0  0
  129.1142  138.8487  134.7621 C   0  0  0  0  0  0  0  0  0  0  0  0
  129.5634  140.7491  132.7770 C   0  0  2  0  0  0  0  0  0  0  0  0
  129.8632  141.6601  133.9184 C   0  0  0  0  0  0  0  0  0  0  0  0
  1  2  1  1
  2  3  1  0
  3  4  2  0
  4  5  1  0
  4  6  1  0
  6  7  2  0
  7  8  1  0
  8  9  1  0
  9 10  2  0
  9 11  1  0
 11 12  1  0
 12 13  1  0
 13 14  1  0
 14 15  1  0
 15 16  1  0
  7 17  1  0
 17 18  1  0
 17 19  2  0
 19 20  1  0
 20 21  2  0
 20 22  1  0
 22 23  2  0
 23 24  1  0
 23 25  1  0
 25 26  1  6
 25 27  1  0
 27 28  2  0
 27 29  1  0
 29 30  1  0
 30 31  1  0
 30 32  2  0
 29 33  2  0
 33 34  1  0
 33 35  1  0
 35 36  1  1
 36 37  1  0
 36 38  1  0
 35 39  1  0
 39 40  1  1
 22  1  1  0
 39 25  1  0
 40  1  1  0
 19  3  1  0
 16 12  1  0
M  END
$$$$
