
     RDKit          3D

 46 52  0  0  0  0  0  0  0  0999 V2000
  127.0321  139.4857  138.6103 C   0  0  0  0  0  0  0  0  0  0  0  0
  127.5581  139.5821  137.2455 N   0  0  0  0  0  0  0  0  0  0  0  0
  127.5446  138.5601  136.4064 N   0  0  0  0  0  0  0  0  0  0  0  0
  128.0839  138.9467  135.2419 C   0  0  0  0  0  0  0  0  0  0  0  0
  128.3183  138.2116  133.9952 C   0  0  0  0  0  0  0  0  0  0  0  0
  129.4645  136.8288  134.1820 S   0  0  0  0  0  0  0  0  0  0  0  0
  131.1224  137.3608  134.5734 C   0  0  0  0  0  0  0  0  0  0  0  0
  132.1370  137.2205  133.4881 C   0  0  0  0  0  0  0  0  0  0  0  0
  133.2064  136.3565  133.6608 N   0  0  0  0  0  0  0  0  0  0  0  0
  133.9676  136.3794  132.6071 N   0  0  0  0  0  0  0  0  0  0  0  0
  135.2020  135.5958  132.4182 C   0  0  0  0  0  0  0  0  0  0  0  0
  133.4099  137.2661  131.7118 C   0  0  0  0  0  0  0  0  0  0  0  0
  134.0509  137.5296  130.3725 C   0  0  0  0  0  0  0  0  0  0  0  0
  134.7744  139.1905  130.2483 S   0  0  0  0  0  0  0  0  0  0  0  0
  133.9821  140.0534  128.8458 C   0  0  0  0  0  0  0  0  0  0  0  0
  134.1233  139.3230  127.6850 C   0  0  0  0  0  0  0  0  0  0  0  0
  133.6031  139.7694  126.4828 C   0  0  0  0  0  0  0  0  0  0  0  0
  132.9450  140.9771  126.5362 C   0  0  0  0  0  0  0  0  0  0  0  0
  132.4407  141.4132  125.3087 C   0  0  0  0  0  0  0  0  0  0  0  0
  132.5735  140.7265  124.1539 C   0  0  0  0  0  0  0  0  0  0  0  0
  133.2431  139.5216  124.1653 C   0  0  0  0  0  0  0  0  0  0  0  0
  133.7735  139.0155  125.3315 C   0  0  0  0  0  0  0  0  0  0  0  0
  132.7913  141.7379  127.7231 C   0  0  0  0  0  0  0  0  0  0  0  0
  132.0908  142.9118  127.5172 O   0  0  0  0  0  0  0  0  0  0  0  0
  130.9578  143.5016  128.0533 C   0  0  0  0  0  0  0  0  0  0  0  0
  130.0762  142.5848  128.8425 C   0  0  0  0  0  0  0  0  0  0  0  0
  129.2115  143.3201  129.8148 C   0  0  0  0  0  0  0  0  0  0  0  0
  128.8831  142.5567  131.0558 C   0  0  0  0  0  0  0  0  0  0  0  0
  127.7039  141.8370  131.0439 C   0  0  0  0  0  0  0  0  0  0  0  0
  127.5361  141.2069  132.2154 N   0  0  0  0  0  0  0  0  0  0  0  0
  126.3355  140.4149  132.4883 C   0  0  0  0  0  0  0  0  0  0  0  0
  128.6217  141.5090  133.0087 C   0  0  0  0  0  0  0  0  0  0  0  0
  129.4768  142.3656  132.2770 C   0  0  0  0  0  0  0  0  0  0  0  0
  130.6721  142.8174  132.8731 C   0  0  0  0  0  0  0  0  0  0  0  0
  131.0640  142.4713  134.1419 C   0  0  0  0  0  0  0  0  0  0  0  0
  130.2559  141.6507  134.8549 C   0  0  0  0  0  0  0  0  0  0  0  0
  130.9108  141.2900  136.4396 Cl  0  0  0  0  0  0  0  0  0  0  0  0
  129.0385  141.1607  134.3111 C   0  0  0  0  0  0  0  0  0  0  0  0
  128.4557  140.3062  135.3730 C   0  0  0  0  0  0  0  0  0  0  0  0
  128.0990  140.6668  136.6742 C   0  0  0  0  0  0  0  0  0  0  0  0
  128.2200  141.9717  137.3504 C   0  0  0  0  0  0  0  0  0  0  0  0
  126.7121  141.6600  129.9556 C   0  0  0  0  0  0  0  0  0  0  0  0
  125.8364  140.5952  129.8849 O   0  0  0  0  0  0  0  0  0  0  0  0
  126.5899  142.4660  129.0067 O   0  0  0  0  0  0  0  0  0  0  0  0
  133.3288  141.2536  128.8988 C   0  0  0  0  0  0  0  0  0  0  0  0
  132.2624  137.7987  132.2544 C   0  0  0  0  0  0  0  0  0  0  0  0
  1  2  1  0
  2  3  1  0
  3  4  2  0
  4  5  1  0
  5  6  1  0
  6  7  1  0
  7  8  1  0
  8  9  2  0
  9 10  1  0
 10 11  1  0
 10 12  1  0
 12 13  1  0
 13 14  1  0
 14 15  1  0
 15 16  1  0
 16 17  2  0
 17 18  1  0
 18 19  1  0
 19 20  2  0
 20 21  1  0
 21 22  2  0
 18 23  2  0
 23 24  1  0
 24 25  1  0
 25 26  1  0
 26 27  1  0
 27 28  1  0
 28 29  2  0
 29 30  1  0
 30 31  1  0
 30 32  1  0
 32 33  2  0
 33 34  1  0
 34 35  2  0
 35 36  1  0
 36 37  1  0
 36 38  2  0
 38 39  1  0
 39 40  2  0
 40 41  1  0
 29 42  1  0
 42 43  1  0
 42 44  2  0
 23 45  1  0
 12 46  2  0
 40  2  1  0
 39  4  1  0
 46  8  1  0
 45 15  2  0
 22 17  1  0
 33 28  1  0
 38 32  1  0
M  END
$$$$
