
     RDKit          3D

 46 52  0  0  0  0  0  0  0  0999 V2000
  198.6714  132.3743  134.7388 C   0  0  0  0  0  0  0  0  0  0  0  0
  200.1064  132.6083  134.5521 N   0  0  0  0  0  0  0  0  0  0  0  0
  200.7118  132.4135  133.3927 N   0  0  0  0  0  0  0  0  0  0  0  0
  202.0117  132.7115  133.5258 C   0  0  0  0  0  0  0  0  0  0  0  0
  203.1174  132.6598  132.5643 C   0  0  0  0  0  0  0  0  0  0  0  0
  203.4586  130.9957  131.9518 S   0  0  0  0  0  0  0  0  0  0  0  0
  204.0729  129.9086  133.2268 C   0  0  0  0  0  0  0  0  0  0  0  0
  205.5170  129.5410  133.1454 C   0  0  0  0  0  0  0  0  0  0  0  0
  205.8741  128.2198  132.9298 N   0  0  0  0  0  0  0  0  0  0  0  0
  207.1692  128.1128  132.8905 N   0  0  0  0  0  0  0  0  0  0  0  0
  207.9251  126.8643  132.6819 C   0  0  0  0  0  0  0  0  0  0  0  0
  207.6952  129.3721  133.0807 C   0  0  0  0  0  0  0  0  0  0  0  0
  209.1856  129.6017  133.0909 C   0  0  0  0  0  0  0  0  0  0  0  0
  209.8259  130.0229  134.7371 S   0  0  0  0  0  0  0  0  0  0  0  0
  210.6478  131.6514  134.6289 C   0  0  0  0  0  0  0  0  0  0  0  0
  211.6317  131.6347  133.6633 C   0  0  0  0  0  0  0  0  0  0  0  0
  212.3964  132.7556  133.3915 C   0  0  0  0  0  0  0  0  0  0  0  0
  212.1023  133.8683  134.1464 C   0  0  0  0  0  0  0  0  0  0  0  0
  212.8957  134.9827  133.8637 C   0  0  0  0  0  0  0  0  0  0  0  0
  213.8739  134.9933  132.9332 C   0  0  0  0  0  0  0  0  0  0  0  0
  214.1202  133.8469  132.2085 C   0  0  0  0  0  0  0  0  0  0  0  0
  213.3860  132.7010  132.4217 C   0  0  0  0  0  0  0  0  0  0  0  0
  211.0925  133.8999  135.1417 C   0  0  0  0  0  0  0  0  0  0  0  0
  210.9895  135.1328  135.7584 O   0  0  0  0  0  0  0  0  0  0  0  0
  209.9807  136.0581  135.9707 C   0  0  0  0  0  0  0  0  0  0  0  0
  208.7636  135.8793  135.1180 C   0  0  0  0  0  0  0  0  0  0  0  0
  207.5473  136.5060  135.7192 C   0  0  0  0  0  0  0  0  0  0  0  0
  206.2641  135.8180  135.3862 C   0  0  0  0  0  0  0  0  0  0  0  0
  205.5742  136.2959  134.2888 C   0  0  0  0  0  0  0  0  0  0  0  0
  204.4477  135.5914  134.1094 N   0  0  0  0  0  0  0  0  0  0  0  0
  203.5014  135.9277  133.0442 C   0  0  0  0  0  0  0  0  0  0  0  0
  204.3963  134.6317  135.0970 C   0  0  0  0  0  0  0  0  0  0  0  0
  205.5457  134.7735  135.9088 C   0  0  0  0  0  0  0  0  0  0  0  0
  205.7318  133.8963  136.9970 C   0  0  0  0  0  0  0  0  0  0  0  0
  204.8509  132.8957  137.3230 C   0  0  0  0  0  0  0  0  0  0  0  0
  203.7457  132.7467  136.5541 C   0  0  0  0  0  0  0  0  0  0  0  0
  202.7411  131.4149  137.0900 Cl  0  0  0  0  0  0  0  0  0  0  0  0
  203.5006  133.5977  135.4434 C   0  0  0  0  0  0  0  0  0  0  0  0
  202.2220  133.1208  134.8644 C   0  0  0  0  0  0  0  0  0  0  0  0
  200.9718  133.0367  135.4811 C   0  0  0  0  0  0  0  0  0  0  0  0
  200.5856  133.3737  136.8639 C   0  0  0  0  0  0  0  0  0  0  0  0
  205.9341  137.3772  133.3399 C   0  0  0  0  0  0  0  0  0  0  0  0
  205.0631  138.3755  132.9521 O   0  0  0  0  0  0  0  0  0  0  0  0
  207.0632  137.4710  132.8093 O   0  0  0  0  0  0  0  0  0  0  0  0
  210.3560  132.7567  135.3795 C   0  0  0  0  0  0  0  0  0  0  0  0
  206.6681  130.2743  133.2415 C   0  0  0  0  0  0  0  0  0  0  0  0
  1  2  1  0
  2  3  1  0
  3  4  2  0
  4  5  1  0
  5  6  1  0
  6  7  1  0
  7  8  1  0
  8  9  2  0
  9 10  1  0
 10 11  1  0
 10 12  1  0
 12 13  1  0
 13 14  1  0
 14 15  1  0
 15 16  1  0
 16 17  2  0
 17 18  1  0
 18 19  1  0
 19 20  2  0
 20 21  1  0
 21 22  2  0
 18 23  2  0
 23 24  1  0
 24 25  1  0
 25 26  1  0
 26 27  1  0
 27 28  1  0
 28 29  2  0
 29 30  1  0
 30 31  1  0
 30 32  1  0
 32 33  2  0
 33 34  1  0
 34 35  2  0
 35 36  1  0
 36 37  1  0
 36 38  2  0
 38 39  1  0
 39 40  2  0
 40 41  1  0
 29 42  1  0
 42 43  1  0
 42 44  2  0
 23 45  1  0
 12 46  2  0
 40  2  1  0
 39  4  1  0
 46  8  1  0
 45 15  2  0
 22 17  1  0
 33 28  1  0
 38 32  1  0
M  END
$$$$
