
     RDKit          3D

 46 52  0  0  0  0  0  0  0  0999 V2000
  173.7120  145.0122  127.3855 C   0  0  0  0  0  0  0  0  0  0  0  0
  172.4866  145.8143  127.4467 N   0  0  0  0  0  0  0  0  0  0  0  0
  171.4077  145.4124  128.0972 N   0  0  0  0  0  0  0  0  0  0  0  0
  170.4560  146.3488  127.9805 C   0  0  0  0  0  0  0  0  0  0  0  0
  169.0836  146.3998  128.4940 C   0  0  0  0  0  0  0  0  0  0  0  0
  168.0221  145.0957  127.8355 S   0  0  0  0  0  0  0  0  0  0  0  0
  167.7303  145.2687  126.0835 C   0  0  0  0  0  0  0  0  0  0  0  0
  166.3608  145.7025  125.6793 C   0  0  0  0  0  0  0  0  0  0  0  0
  165.5635  144.8444  124.9392 N   0  0  0  0  0  0  0  0  0  0  0  0
  164.4176  145.4073  124.6937 N   0  0  0  0  0  0  0  0  0  0  0  0
  163.3078  144.8067  123.9313 C   0  0  0  0  0  0  0  0  0  0  0  0
  164.4374  146.6577  125.2724 C   0  0  0  0  0  0  0  0  0  0  0  0
  163.2499  147.5818  125.1740 C   0  0  0  0  0  0  0  0  0  0  0  0
  163.5559  149.0165  124.1035 S   0  0  0  0  0  0  0  0  0  0  0  0
  163.3066  150.5307  125.0955 C   0  0  0  0  0  0  0  0  0  0  0  0
  162.0462  150.5425  125.6540 C   0  0  0  0  0  0  0  0  0  0  0  0
  161.6199  151.5885  126.4535 C   0  0  0  0  0  0  0  0  0  0  0  0
  162.5367  152.5973  126.6446 C   0  0  0  0  0  0  0  0  0  0  0  0
  162.0793  153.6478  127.4435 C   0  0  0  0  0  0  0  0  0  0  0  0
  160.8472  153.6933  127.9939 C   0  0  0  0  0  0  0  0  0  0  0  0
  159.9740  152.6513  127.7662 C   0  0  0  0  0  0  0  0  0  0  0  0
  160.3413  151.5743  126.9899 C   0  0  0  0  0  0  0  0  0  0  0  0
  163.8365  152.5975  126.0775 C   0  0  0  0  0  0  0  0  0  0  0  0
  164.5674  153.7200  126.4190 O   0  0  0  0  0  0  0  0  0  0  0  0
  165.7949  153.9659  127.0122 C   0  0  0  0  0  0  0  0  0  0  0  0
  166.3978  152.8008  127.7330 C   0  0  0  0  0  0  0  0  0  0  0  0
  167.8805  152.9221  127.8759 C   0  0  0  0  0  0  0  0  0  0  0  0
  168.6124  151.6202  127.8908 C   0  0  0  0  0  0  0  0  0  0  0  0
  168.8611  151.0661  129.1316 C   0  0  0  0  0  0  0  0  0  0  0  0
  169.5226  149.9079  128.9956 N   0  0  0  0  0  0  0  0  0  0  0  0
  169.9595  149.1394  130.1625 C   0  0  0  0  0  0  0  0  0  0  0  0
  169.7072  149.6910  127.6472 C   0  0  0  0  0  0  0  0  0  0  0  0
  169.1324  150.7753  126.9442 C   0  0  0  0  0  0  0  0  0  0  0  0
  169.1851  150.7870  125.5352 C   0  0  0  0  0  0  0  0  0  0  0  0
  169.7700  149.7937  124.7905 C   0  0  0  0  0  0  0  0  0  0  0  0
  170.3239  148.7479  125.4496 C   0  0  0  0  0  0  0  0  0  0  0  0
  171.0049  147.5613  124.3549 Cl  0  0  0  0  0  0  0  0  0  0  0  0
  170.3034  148.6767  126.8681 C   0  0  0  0  0  0  0  0  0  0  0  0
  170.9877  147.4048  127.2023 C   0  0  0  0  0  0  0  0  0  0  0  0
  172.2905  147.0146  126.8842 C   0  0  0  0  0  0  0  0  0  0  0  0
  173.3246  147.7383  126.1218 C   0  0  0  0  0  0  0  0  0  0  0  0
  168.4691  151.5446  130.4794 C   0  0  0  0  0  0  0  0  0  0  0  0
  167.2602  151.2460  131.0752 O   0  0  0  0  0  0  0  0  0  0  0  0
  169.2068  152.2641  131.1889 O   0  0  0  0  0  0  0  0  0  0  0  0
  164.2174  151.5333  125.2848 C   0  0  0  0  0  0  0  0  0  0  0  0
  165.6508  146.8525  125.8925 C   0  0  0  0  0  0  0  0  0  0  0  0
  1  2  1  0
  2  3  1  0
  3  4  2  0
  4  5  1  0
  5  6  1  0
  6  7  1  0
  7  8  1  0
  8  9  2  0
  9 10  1  0
 10 11  1  0
 10 12  1  0
 12 13  1  0
 13 14  1  0
 14 15  1  0
 15 16  1  0
 16 17  2  0
 17 18  1  0
 18 19  1  0
 19 20  2  0
 20 21  1  0
 21 22  2  0
 18 23  2  0
 23 24  1  0
 24 25  1  0
 25 26  1  0
 26 27  1  0
 27 28  1  0
 28 29  2  0
 29 30  1  0
 30 31  1  0
 30 32  1  0
 32 33  2  0
 33 34  1  0
 34 35  2  0
 35 36  1  0
 36 37  1  0
 36 38  2  0
 38 39  1  0
 39 40  2  0
 40 41  1  0
 29 42  1  0
 42 43  1  0
 42 44  2  0
 23 45  1  0
 12 46  2  0
 40  2  1  0
 39  4  1  0
 46  8  1  0
 45 15  2  0
 22 17  1  0
 33 28  1  0
 38 32  1  0
M  END
$$$$
