
     RDKit          3D

 46 52  0  0  0  0  0  0  0  0999 V2000
  127.3322  133.9438  132.4936 C   0  0  0  0  0  0  0  0  0  0  0  0
  128.0416  135.0034  131.7707 N   0  0  0  0  0  0  0  0  0  0  0  0
  127.6195  135.4751  130.6096 N   0  0  0  0  0  0  0  0  0  0  0  0
  128.4629  136.4312  130.1964 C   0  0  0  0  0  0  0  0  0  0  0  0
  128.4662  137.2585  128.9860 C   0  0  0  0  0  0  0  0  0  0  0  0
  128.6450  136.3030  127.4641 S   0  0  0  0  0  0  0  0  0  0  0  0
  130.2401  135.5134  127.3339 C   0  0  0  0  0  0  0  0  0  0  0  0
  131.1823  136.0848  126.3274 C   0  0  0  0  0  0  0  0  0  0  0  0
  131.5776  135.3127  125.2470 N   0  0  0  0  0  0  0  0  0  0  0  0
  132.3920  135.9907  124.4938 N   0  0  0  0  0  0  0  0  0  0  0  0
  133.0259  135.5054  123.2544 C   0  0  0  0  0  0  0  0  0  0  0  0
  132.5503  137.2334  125.0679 C   0  0  0  0  0  0  0  0  0  0  0  0
  133.4405  138.2756  124.4391 C   0  0  0  0  0  0  0  0  0  0  0  0
  134.9498  138.5900  125.3987 S   0  0  0  0  0  0  0  0  0  0  0  0
  134.9835  140.3622  125.8429 C   0  0  0  0  0  0  0  0  0  0  0  0
  134.8982  141.1470  124.7126 C   0  0  0  0  0  0  0  0  0  0  0  0
  134.9017  142.5287  124.7905 C   0  0  0  0  0  0  0  0  0  0  0  0
  134.9945  143.0482  126.0617 C   0  0  0  0  0  0  0  0  0  0  0  0
  135.0098  144.4440  126.1140 C   0  0  0  0  0  0  0  0  0  0  0  0
  134.9399  145.2386  125.0247 C   0  0  0  0  0  0  0  0  0  0  0  0
  134.8476  144.6579  123.7779 C   0  0  0  0  0  0  0  0  0  0  0  0
  134.8264  143.2882  123.6328 C   0  0  0  0  0  0  0  0  0  0  0  0
  135.0816  142.2530  127.2327 C   0  0  0  0  0  0  0  0  0  0  0  0
  135.1633  143.0097  128.3867 O   0  0  0  0  0  0  0  0  0  0  0  0
  134.4532  143.0953  129.5730 C   0  0  0  0  0  0  0  0  0  0  0  0
  133.1032  142.4489  129.5543 C   0  0  0  0  0  0  0  0  0  0  0  0
  132.6223  142.0900  130.9231 C   0  0  0  0  0  0  0  0  0  0  0  0
  131.7395  140.8865  130.9764 C   0  0  0  0  0  0  0  0  0  0  0  0
  130.3788  141.1156  130.9082 C   0  0  0  0  0  0  0  0  0  0  0  0
  129.7117  139.9542  130.9691 N   0  0  0  0  0  0  0  0  0  0  0  0
  128.2483  139.9165  130.9720 C   0  0  0  0  0  0  0  0  0  0  0  0
  130.6441  138.9446  131.0720 C   0  0  0  0  0  0  0  0  0  0  0  0
  131.9305  139.5325  131.0782 C   0  0  0  0  0  0  0  0  0  0  0  0
  133.0660  138.7016  131.1703 C   0  0  0  0  0  0  0  0  0  0  0  0
  132.9991  137.3336  131.2559 C   0  0  0  0  0  0  0  0  0  0  0  0
  131.7739  136.7558  131.2502 C   0  0  0  0  0  0  0  0  0  0  0  0
  131.8657  135.0084  131.3425 Cl  0  0  0  0  0  0  0  0  0  0  0  0
  130.5912  137.5372  131.1590 C   0  0  0  0  0  0  0  0  0  0  0  0
  129.4778  136.5586  131.1748 C   0  0  0  0  0  0  0  0  0  0  0  0
  129.1638  135.6223  132.1624 C   0  0  0  0  0  0  0  0  0  0  0  0
  129.8530  135.3365  133.4344 C   0  0  0  0  0  0  0  0  0  0  0  0
  129.6392  142.3901  130.7410 C   0  0  0  0  0  0  0  0  0  0  0  0
  130.1749  143.6289  131.0310 O   0  0  0  0  0  0  0  0  0  0  0  0
  128.4614  142.4452  130.3227 O   0  0  0  0  0  0  0  0  0  0  0  0
  135.0764  140.8783  127.1060 C   0  0  0  0  0  0  0  0  0  0  0  0
  131.7965  137.3024  126.2175 C   0  0  0  0  0  0  0  0  0  0  0  0
  1  2  1  0
  2  3  1  0
  3  4  2  0
  4  5  1  0
  5  6  1  0
  6  7  1  0
  7  8  1  0
  8  9  2  0
  9 10  1  0
 10 11  1  0
 10 12  1  0
 12 13  1  0
 13 14  1  0
 14 15  1  0
 15 16  1  0
 16 17  2  0
 17 18  1  0
 18 19  1  0
 19 20  2  0
 20 21  1  0
 21 22  2  0
 18 23  2  0
 23 24  1  0
 24 25  1  0
 25 26  1  0
 26 27  1  0
 27 28  1  0
 28 29  2  0
 29 30  1  0
 30 31  1  0
 30 32  1  0
 32 33  2  0
 33 34  1  0
 34 35  2  0
 35 36  1  0
 36 37  1  0
 36 38  2  0
 38 39  1  0
 39 40  2  0
 40 41  1  0
 29 42  1  0
 42 43  1  0
 42 44  2  0
 23 45  1  0
 12 46  2  0
 40  2  1  0
 39  4  1  0
 46  8  1  0
 45 15  2  0
 22 17  1  0
 33 28  1  0
 38 32  1  0
M  END
$$$$
