
     RDKit          3D

 46 52  0  0  0  0  0  0  0  0999 V2000
  188.9403  156.8113  128.5975 C   0  0  0  0  0  0  0  0  0  0  0  0
  189.4261  157.4264  127.3588 N   0  0  0  0  0  0  0  0  0  0  0  0
  188.7888  158.4203  126.7631 N   0  0  0  0  0  0  0  0  0  0  0  0
  189.4674  158.7742  125.6629 C   0  0  0  0  0  0  0  0  0  0  0  0
  189.1969  159.7986  124.6495 C   0  0  0  0  0  0  0  0  0  0  0  0
  187.6649  159.5173  123.7358 S   0  0  0  0  0  0  0  0  0  0  0  0
  187.7319  158.0515  122.7201 C   0  0  0  0  0  0  0  0  0  0  0  0
  187.8173  158.2696  121.2463 C   0  0  0  0  0  0  0  0  0  0  0  0
  186.7801  157.8445  120.4319 N   0  0  0  0  0  0  0  0  0  0  0  0
  187.0474  158.1282  119.1916 N   0  0  0  0  0  0  0  0  0  0  0  0
  186.1848  157.8297  118.0338 C   0  0  0  0  0  0  0  0  0  0  0  0
  188.2761  158.7514  119.1642 C   0  0  0  0  0  0  0  0  0  0  0  0
  188.8866  159.2158  117.8659 C   0  0  0  0  0  0  0  0  0  0  0  0
  190.3336  158.2354  117.3733 S   0  0  0  0  0  0  0  0  0  0  0  0
  191.7612  159.3655  117.2182 C   0  0  0  0  0  0  0  0  0  0  0  0
  191.4802  160.3827  116.3309 C   0  0  0  0  0  0  0  0  0  0  0  0
  192.4075  161.3697  116.0462 C   0  0  0  0  0  0  0  0  0  0  0  0
  193.6099  161.2587  116.7068 C   0  0  0  0  0  0  0  0  0  0  0  0
  194.5340  162.2580  116.3933 C   0  0  0  0  0  0  0  0  0  0  0  0
  194.2924  163.2592  115.5203 C   0  0  0  0  0  0  0  0  0  0  0  0
  193.0676  163.3166  114.8905 C   0  0  0  0  0  0  0  0  0  0  0  0
  192.0966  162.3719  115.1397 C   0  0  0  0  0  0  0  0  0  0  0  0
  193.9117  160.2187  117.6226 C   0  0  0  0  0  0  0  0  0  0  0  0
  195.1826  160.3291  118.1551 O   0  0  0  0  0  0  0  0  0  0  0  0
  195.7261  160.3965  119.4275 C   0  0  0  0  0  0  0  0  0  0  0  0
  194.7525  160.7148  120.5190 C   0  0  0  0  0  0  0  0  0  0  0  0
  195.2284  160.2587  121.8604 C   0  0  0  0  0  0  0  0  0  0  0  0
  194.1405  159.8702  122.8070 C   0  0  0  0  0  0  0  0  0  0  0  0
  193.6842  160.8557  123.6610 C   0  0  0  0  0  0  0  0  0  0  0  0
  192.7162  160.3697  124.4511 N   0  0  0  0  0  0  0  0  0  0  0  0
  192.0957  161.1944  125.4894 C   0  0  0  0  0  0  0  0  0  0  0  0
  192.5261  159.0480  124.1100 C   0  0  0  0  0  0  0  0  0  0  0  0
  193.4284  158.7280  123.0689 C   0  0  0  0  0  0  0  0  0  0  0  0
  193.4274  157.4231  122.5348 C   0  0  0  0  0  0  0  0  0  0  0  0
  192.5903  156.4266  122.9702 C   0  0  0  0  0  0  0  0  0  0  0  0
  191.7197  156.7182  123.9662 C   0  0  0  0  0  0  0  0  0  0  0  0
  190.7118  155.3479  124.3866 Cl  0  0  0  0  0  0  0  0  0  0  0  0
  191.6707  158.0139  124.5462 C   0  0  0  0  0  0  0  0  0  0  0  0
  190.6062  157.9382  125.5750 C   0  0  0  0  0  0  0  0  0  0  0  0
  190.5342  157.0918  126.6837 C   0  0  0  0  0  0  0  0  0  0  0  0
  191.4712  156.0405  127.1213 C   0  0  0  0  0  0  0  0  0  0  0  0
  194.0785  162.2819  123.7596 C   0  0  0  0  0  0  0  0  0  0  0  0
  193.3288  163.2390  124.4135 O   0  0  0  0  0  0  0  0  0  0  0  0
  195.1284  162.7357  123.2529 O   0  0  0  0  0  0  0  0  0  0  0  0
  192.9561  159.2547  117.8742 C   0  0  0  0  0  0  0  0  0  0  0  0
  188.7671  158.8448  120.4468 C   0  0  0  0  0  0  0  0  0  0  0  0
  1  2  1  0
  2  3  1  0
  3  4  2  0
  4  5  1  0
  5  6  1  0
  6  7  1  0
  7  8  1  0
  8  9  2  0
  9 10  1  0
 10 11  1  0
 10 12  1  0
 12 13  1  0
 13 14  1  0
 14 15  1  0
 15 16  1  0
 16 17  2  0
 17 18  1  0
 18 19  1  0
 19 20  2  0
 20 21  1  0
 21 22  2  0
 18 23  2  0
 23 24  1  0
 24 25  1  0
 25 26  1  0
 26 27  1  0
 27 28  1  0
 28 29  2  0
 29 30  1  0
 30 31  1  0
 30 32  1  0
 32 33  2  0
 33 34  1  0
 34 35  2  0
 35 36  1  0
 36 37  1  0
 36 38  2  0
 38 39  1  0
 39 40  2  0
 40 41  1  0
 29 42  1  0
 42 43  1  0
 42 44  2  0
 23 45  1  0
 12 46  2  0
 40  2  1  0
 39  4  1  0
 46  8  1  0
 45 15  2  0
 22 17  1  0
 33 28  1  0
 38 32  1  0
M  END
$$$$
