
     RDKit          3D

 46 52  0  0  0  0  0  0  0  0999 V2000
  131.8016  133.5118  135.7163 C   0  0  0  0  0  0  0  0  0  0  0  0
  131.6613  134.5251  134.6665 N   0  0  0  0  0  0  0  0  0  0  0  0
  130.5979  134.5923  133.8832 N   0  0  0  0  0  0  0  0  0  0  0  0
  130.7508  135.6142  133.0297 C   0  0  0  0  0  0  0  0  0  0  0  0
  129.8847  136.1145  131.9576 C   0  0  0  0  0  0  0  0  0  0  0  0
  129.6180  134.9168  130.6328 S   0  0  0  0  0  0  0  0  0  0  0  0
  131.1094  134.5613  129.7195 C   0  0  0  0  0  0  0  0  0  0  0  0
  131.1859  135.1123  128.3347 C   0  0  0  0  0  0  0  0  0  0  0  0
  131.2447  134.2439  127.2567 N   0  0  0  0  0  0  0  0  0  0  0  0
  131.3045  134.9197  126.1477 N   0  0  0  0  0  0  0  0  0  0  0  0
  131.3806  134.3461  124.7917 C   0  0  0  0  0  0  0  0  0  0  0  0
  131.2858  136.2579  126.4760 C   0  0  0  0  0  0  0  0  0  0  0  0
  131.3425  137.3234  125.4104 C   0  0  0  0  0  0  0  0  0  0  0  0
  132.9157  138.2304  125.3990 S   0  0  0  0  0  0  0  0  0  0  0  0
  132.5529  140.0032  125.6532 C   0  0  0  0  0  0  0  0  0  0  0  0
  131.6688  140.4589  124.6985 C   0  0  0  0  0  0  0  0  0  0  0  0
  131.2376  141.7738  124.6820 C   0  0  0  0  0  0  0  0  0  0  0  0
  131.7506  142.5760  125.6759 C   0  0  0  0  0  0  0  0  0  0  0  0
  131.3117  143.9013  125.6308 C   0  0  0  0  0  0  0  0  0  0  0  0
  130.4566  144.3795  124.7019 C   0  0  0  0  0  0  0  0  0  0  0  0
  129.9767  143.5257  123.7319 C   0  0  0  0  0  0  0  0  0  0  0  0
  130.3570  142.2021  123.7003 C   0  0  0  0  0  0  0  0  0  0  0  0
  132.6594  142.1203  126.6647 C   0  0  0  0  0  0  0  0  0  0  0  0
  133.0257  143.1152  127.5518 O   0  0  0  0  0  0  0  0  0  0  0  0
  132.9989  143.2820  128.9267 C   0  0  0  0  0  0  0  0  0  0  0  0
  132.1232  142.3201  129.6672 C   0  0  0  0  0  0  0  0  0  0  0  0
  132.5212  142.1712  131.1000 C   0  0  0  0  0  0  0  0  0  0  0  0
  132.2467  140.8246  131.6850 C   0  0  0  0  0  0  0  0  0  0  0  0
  131.0395  140.6700  132.3385 C   0  0  0  0  0  0  0  0  0  0  0  0
  130.9281  139.4208  132.8126 N   0  0  0  0  0  0  0  0  0  0  0  0
  129.7635  139.0053  133.5963 C   0  0  0  0  0  0  0  0  0  0  0  0
  132.0737  138.7398  132.4618 C   0  0  0  0  0  0  0  0  0  0  0  0
  132.9122  139.6273  131.7480 C   0  0  0  0  0  0  0  0  0  0  0  0
  134.1552  139.1644  131.2696 C   0  0  0  0  0  0  0  0  0  0  0  0
  134.6098  137.8832  131.4571 C   0  0  0  0  0  0  0  0  0  0  0  0
  133.8174  137.0211  132.1381 C   0  0  0  0  0  0  0  0  0  0  0  0
  134.5327  135.4269  132.2688 Cl  0  0  0  0  0  0  0  0  0  0  0  0
  132.5537  137.4256  132.6453 C   0  0  0  0  0  0  0  0  0  0  0  0
  131.9986  136.2215  133.3082 C   0  0  0  0  0  0  0  0  0  0  0  0
  132.5436  135.4872  134.3639 C   0  0  0  0  0  0  0  0  0  0  0  0
  133.8123  135.6891  135.0879 C   0  0  0  0  0  0  0  0  0  0  0  0
  129.9275  141.6349  132.5169 C   0  0  0  0  0  0  0  0  0  0  0  0
  128.6570  141.4390  132.0138 O   0  0  0  0  0  0  0  0  0  0  0  0
  130.0529  142.7123  133.1403 O   0  0  0  0  0  0  0  0  0  0  0  0
  133.0632  140.8003  126.6404 C   0  0  0  0  0  0  0  0  0  0  0  0
  131.2117  136.3893  127.8442 C   0  0  0  0  0  0  0  0  0  0  0  0
  1  2  1  0
  2  3  1  0
  3  4  2  0
  4  5  1  0
  5  6  1  0
  6  7  1  0
  7  8  1  0
  8  9  2  0
  9 10  1  0
 10 11  1  0
 10 12  1  0
 12 13  1  0
 13 14  1  0
 14 15  1  0
 15 16  1  0
 16 17  2  0
 17 18  1  0
 18 19  1  0
 19 20  2  0
 20 21  1  0
 21 22  2  0
 18 23  2  0
 23 24  1  0
 24 25  1  0
 25 26  1  0
 26 27  1  0
 27 28  1  0
 28 29  2  0
 29 30  1  0
 30 31  1  0
 30 32  1  0
 32 33  2  0
 33 34  1  0
 34 35  2  0
 35 36  1  0
 36 37  1  0
 36 38  2  0
 38 39  1  0
 39 40  2  0
 40 41  1  0
 29 42  1  0
 42 43  1  0
 42 44  2  0
 23 45  1  0
 12 46  2  0
 40  2  1  0
 39  4  1  0
 46  8  1  0
 45 15  2  0
 22 17  1  0
 33 28  1  0
 38 32  1  0
M  END
$$$$
