
     RDKit          3D

 46 52  0  0  0  0  0  0  0  0999 V2000
  187.1489  161.2020  121.5449 C   0  0  0  0  0  0  0  0  0  0  0  0
  187.7493  161.1032  122.8785 N   0  0  0  0  0  0  0  0  0  0  0  0
  187.1325  160.5201  123.8926 N   0  0  0  0  0  0  0  0  0  0  0  0
  187.9224  160.5792  124.9737 C   0  0  0  0  0  0  0  0  0  0  0  0
  187.7199  160.1004  126.3446 C   0  0  0  0  0  0  0  0  0  0  0  0
  186.3373  160.9001  127.1872 S   0  0  0  0  0  0  0  0  0  0  0  0
  186.6243  162.6371  127.4785 C   0  0  0  0  0  0  0  0  0  0  0  0
  186.8831  163.0382  128.8924 C   0  0  0  0  0  0  0  0  0  0  0  0
  185.9866  163.8726  129.5404 N   0  0  0  0  0  0  0  0  0  0  0  0
  186.3915  164.0981  130.7551 N   0  0  0  0  0  0  0  0  0  0  0  0
  185.7037  164.9403  131.7507 C   0  0  0  0  0  0  0  0  0  0  0  0
  187.5725  163.4107  130.9329 C   0  0  0  0  0  0  0  0  0  0  0  0
  188.3134  163.4590  132.2454 C   0  0  0  0  0  0  0  0  0  0  0  0
  189.8695  164.3897  132.1463 S   0  0  0  0  0  0  0  0  0  0  0  0
  191.2321  163.2747  132.6355 C   0  0  0  0  0  0  0  0  0  0  0  0
  191.0037  162.7516  133.8905 C   0  0  0  0  0  0  0  0  0  0  0  0
  191.8964  161.8745  134.4810 C   0  0  0  0  0  0  0  0  0  0  0  0
  193.0094  161.5702  133.7305 C   0  0  0  0  0  0  0  0  0  0  0  0
  193.9020  160.6942  134.3526 C   0  0  0  0  0  0  0  0  0  0  0  0
  193.7117  160.1753  135.5844 C   0  0  0  0  0  0  0  0  0  0  0  0
  192.5760  160.5178  136.2865 C   0  0  0  0  0  0  0  0  0  0  0  0
  191.6418  161.3761  135.7497 C   0  0  0  0  0  0  0  0  0  0  0  0
  193.2563  162.0998  132.4383 C   0  0  0  0  0  0  0  0  0  0  0  0
  194.4397  161.6408  131.8907 O   0  0  0  0  0  0  0  0  0  0  0  0
  194.8113  160.9953  130.7227 C   0  0  0  0  0  0  0  0  0  0  0  0
  193.6887  160.3643  129.9597 C   0  0  0  0  0  0  0  0  0  0  0  0
  194.0172  160.1713  128.5146 C   0  0  0  0  0  0  0  0  0  0  0  0
  192.8439  160.2519  127.5940 C   0  0  0  0  0  0  0  0  0  0  0  0
  192.2221  159.0587  127.2807 C   0  0  0  0  0  0  0  0  0  0  0  0
  191.1934  159.2788  126.4494 N   0  0  0  0  0  0  0  0  0  0  0  0
  190.3955  158.1730  125.9166 C   0  0  0  0  0  0  0  0  0  0  0  0
  191.1309  160.6356  126.2161 C   0  0  0  0  0  0  0  0  0  0  0  0
  192.1767  161.2552  126.9393 C   0  0  0  0  0  0  0  0  0  0  0  0
  192.3250  162.6557  126.8703 C   0  0  0  0  0  0  0  0  0  0  0  0
  191.5029  163.4693  126.1317 C   0  0  0  0  0  0  0  0  0  0  0  0
  190.4960  162.8906  125.4343 C   0  0  0  0  0  0  0  0  0  0  0  0
  189.5301  164.0672  124.5668 Cl  0  0  0  0  0  0  0  0  0  0  0  0
  190.2930  161.4850  125.4627 C   0  0  0  0  0  0  0  0  0  0  0  0
  189.1129  161.2462  124.5979 C   0  0  0  0  0  0  0  0  0  0  0  0
  188.9530  161.5624  123.2469 C   0  0  0  0  0  0  0  0  0  0  0  0
  189.8902  162.2296  122.3244 C   0  0  0  0  0  0  0  0  0  0  0  0
  192.5110  157.6849  127.7586 C   0  0  0  0  0  0  0  0  0  0  0  0
  193.3781  156.8201  127.1212 O   0  0  0  0  0  0  0  0  0  0  0  0
  191.9872  157.1952  128.7837 O   0  0  0  0  0  0  0  0  0  0  0  0
  192.3382  162.9730  131.8899 C   0  0  0  0  0  0  0  0  0  0  0  0
  187.8894  162.7433  129.7714 C   0  0  0  0  0  0  0  0  0  0  0  0
  1  2  1  0
  2  3  1  0
  3  4  2  0
  4  5  1  0
  5  6  1  0
  6  7  1  0
  7  8  1  0
  8  9  2  0
  9 10  1  0
 10 11  1  0
 10 12  1  0
 12 13  1  0
 13 14  1  0
 14 15  1  0
 15 16  1  0
 16 17  2  0
 17 18  1  0
 18 19  1  0
 19 20  2  0
 20 21  1  0
 21 22  2  0
 18 23  2  0
 23 24  1  0
 24 25  1  0
 25 26  1  0
 26 27  1  0
 27 28  1  0
 28 29  2  0
 29 30  1  0
 30 31  1  0
 30 32  1  0
 32 33  2  0
 33 34  1  0
 34 35  2  0
 35 36  1  0
 36 37  1  0
 36 38  2  0
 38 39  1  0
 39 40  2  0
 40 41  1  0
 29 42  1  0
 42 43  1  0
 42 44  2  0
 23 45  1  0
 12 46  2  0
 40  2  1  0
 39  4  1  0
 46  8  1  0
 45 15  2  0
 22 17  1  0
 33 28  1  0
 38 32  1  0
M  END
$$$$
