
     RDKit          3D

 46 52  0  0  0  0  0  0  0  0999 V2000
  188.2596  164.9204  125.1513 C   0  0  0  0  0  0  0  0  0  0  0  0
  188.7440  164.1774  123.9843 N   0  0  0  0  0  0  0  0  0  0  0  0
  188.0401  163.2136  123.4148 N   0  0  0  0  0  0  0  0  0  0  0  0
  188.7325  162.7253  122.3764 C   0  0  0  0  0  0  0  0  0  0  0  0
  188.4198  161.6538  121.4257 C   0  0  0  0  0  0  0  0  0  0  0  0
  188.2481  160.0327  122.2025 S   0  0  0  0  0  0  0  0  0  0  0  0
  189.7836  159.4346  122.8873 C   0  0  0  0  0  0  0  0  0  0  0  0
  190.4376  158.3060  122.1624 C   0  0  0  0  0  0  0  0  0  0  0  0
  190.5784  157.0800  122.7926 N   0  0  0  0  0  0  0  0  0  0  0  0
  191.1673  156.2385  121.9956 N   0  0  0  0  0  0  0  0  0  0  0  0
  191.4932  154.8358  122.3114 C   0  0  0  0  0  0  0  0  0  0  0  0
  191.4279  156.8988  120.8146 C   0  0  0  0  0  0  0  0  0  0  0  0
  192.1110  156.2015  119.6652 C   0  0  0  0  0  0  0  0  0  0  0  0
  193.7996  156.8030  119.3747 S   0  0  0  0  0  0  0  0  0  0  0  0
  193.8941  157.4295  117.6608 C   0  0  0  0  0  0  0  0  0  0  0  0
  193.5160  156.4515  116.7655 C   0  0  0  0  0  0  0  0  0  0  0  0
  193.5023  156.6865  115.4019 C   0  0  0  0  0  0  0  0  0  0  0  0
  193.8879  157.9505  115.0166 C   0  0  0  0  0  0  0  0  0  0  0  0
  193.8790  158.1597  113.6355 C   0  0  0  0  0  0  0  0  0  0  0  0
  193.5256  157.2186  112.7342 C   0  0  0  0  0  0  0  0  0  0  0  0
  193.1481  155.9711  113.1828 C   0  0  0  0  0  0  0  0  0  0  0  0
  193.1280  155.6768  114.5283 C   0  0  0  0  0  0  0  0  0  0  0  0
  194.2778  158.9661  115.9264 C   0  0  0  0  0  0  0  0  0  0  0  0
  194.6179  160.1472  115.2937 O   0  0  0  0  0  0  0  0  0  0  0  0
  194.2155  161.4704  115.3731 C   0  0  0  0  0  0  0  0  0  0  0  0
  192.9188  161.6993  116.0851 C   0  0  0  0  0  0  0  0  0  0  0  0
  192.7947  163.0919  116.6131 C   0  0  0  0  0  0  0  0  0  0  0  0
  191.9830  163.2139  117.8608 C   0  0  0  0  0  0  0  0  0  0  0  0
  190.6412  163.4996  117.6988 C   0  0  0  0  0  0  0  0  0  0  0  0
  190.0394  163.5823  118.8941 N   0  0  0  0  0  0  0  0  0  0  0  0
  188.6220  163.9299  119.0101 C   0  0  0  0  0  0  0  0  0  0  0  0
  190.9948  163.3415  119.8576 C   0  0  0  0  0  0  0  0  0  0  0  0
  192.2283  163.1089  119.2059 C   0  0  0  0  0  0  0  0  0  0  0  0
  193.3734  162.8300  119.9799 C   0  0  0  0  0  0  0  0  0  0  0  0
  193.3650  162.7693  121.3509 C   0  0  0  0  0  0  0  0  0  0  0  0
  192.1908  162.9889  121.9895 C   0  0  0  0  0  0  0  0  0  0  0  0
  192.3478  162.8527  123.7293 Cl  0  0  0  0  0  0  0  0  0  0  0  0
  191.0014  163.2742  121.2671 C   0  0  0  0  0  0  0  0  0  0  0  0
  189.9512  163.4412  122.2999 C   0  0  0  0  0  0  0  0  0  0  0  0
  189.9112  164.3593  123.3516 C   0  0  0  0  0  0  0  0  0  0  0  0
  190.8962  165.3880  123.7342 C   0  0  0  0  0  0  0  0  0  0  0  0
  189.8501  163.6631  116.4552 C   0  0  0  0  0  0  0  0  0  0  0  0
  190.3331  163.3647  115.1968 O   0  0  0  0  0  0  0  0  0  0  0  0
  188.6740  164.0896  116.4462 O   0  0  0  0  0  0  0  0  0  0  0  0
  194.2778  158.6852  117.2780 C   0  0  0  0  0  0  0  0  0  0  0  0
  190.9747  158.1951  120.9089 C   0  0  0  0  0  0  0  0  0  0  0  0
  1  2  1  0
  2  3  1  0
  3  4  2  0
  4  5  1  0
  5  6  1  0
  6  7  1  0
  7  8  1  0
  8  9  2  0
  9 10  1  0
 10 11  1  0
 10 12  1  0
 12 13  1  0
 13 14  1  0
 14 15  1  0
 15 16  1  0
 16 17  2  0
 17 18  1  0
 18 19  1  0
 19 20  2  0
 20 21  1  0
 21 22  2  0
 18 23  2  0
 23 24  1  0
 24 25  1  0
 25 26  1  0
 26 27  1  0
 27 28  1  0
 28 29  2  0
 29 30  1  0
 30 31  1  0
 30 32  1  0
 32 33  2  0
 33 34  1  0
 34 35  2  0
 35 36  1  0
 36 37  1  0
 36 38  2  0
 38 39  1  0
 39 40  2  0
 40 41  1  0
 29 42  1  0
 42 43  1  0
 42 44  2  0
 23 45  1  0
 12 46  2  0
 40  2  1  0
 39  4  1  0
 46  8  1  0
 45 15  2  0
 22 17  1  0
 33 28  1  0
 38 32  1  0
M  END
$$$$
