
     RDKit          3D

 46 52  0  0  0  0  0  0  0  0999 V2000
  131.9848  141.4526  123.1440 C   0  0  0  0  0  0  0  0  0  0  0  0
  131.9395  141.2735  124.5981 N   0  0  0  0  0  0  0  0  0  0  0  0
  132.7304  141.9425  125.4201 N   0  0  0  0  0  0  0  0  0  0  0  0
  132.4594  141.5740  126.6799 C   0  0  0  0  0  0  0  0  0  0  0  0
  133.0458  141.9947  127.9561 C   0  0  0  0  0  0  0  0  0  0  0  0
  134.7990  141.5897  128.1085 S   0  0  0  0  0  0  0  0  0  0  0  0
  135.0934  139.8306  128.1687 C   0  0  0  0  0  0  0  0  0  0  0  0
  135.5082  139.2728  129.4893 C   0  0  0  0  0  0  0  0  0  0  0  0
  136.7636  138.7026  129.6256 N   0  0  0  0  0  0  0  0  0  0  0  0
  136.9278  138.2819  130.8448 N   0  0  0  0  0  0  0  0  0  0  0  0
  138.1335  137.6174  131.3724 C   0  0  0  0  0  0  0  0  0  0  0  0
  135.7742  138.5693  131.5415 C   0  0  0  0  0  0  0  0  0  0  0  0
  135.6331  138.2096  132.9991 C   0  0  0  0  0  0  0  0  0  0  0  0
  134.4472  136.8644  133.2849 S   0  0  0  0  0  0  0  0  0  0  0  0
  133.1444  137.4825  134.4074 C   0  0  0  0  0  0  0  0  0  0  0  0
  133.6981  137.9612  135.5757 C   0  0  0  0  0  0  0  0  0  0  0  0
  132.9115  138.4868  136.5857 C   0  0  0  0  0  0  0  0  0  0  0  0
  131.5579  138.4948  136.3364 C   0  0  0  0  0  0  0  0  0  0  0  0
  130.7838  139.0173  137.3751 C   0  0  0  0  0  0  0  0  0  0  0  0
  131.2957  139.4821  138.5348 C   0  0  0  0  0  0  0  0  0  0  0  0
  132.6606  139.4478  138.7247 C   0  0  0  0  0  0  0  0  0  0  0  0
  133.5000  138.9488  137.7532 C   0  0  0  0  0  0  0  0  0  0  0  0
  130.9751  138.0071  135.1391 C   0  0  0  0  0  0  0  0  0  0  0  0
  129.5980  138.1272  135.1285 O   0  0  0  0  0  0  0  0  0  0  0  0
  128.6563  138.7113  134.2973 C   0  0  0  0  0  0  0  0  0  0  0  0
  129.2012  139.7015  133.3158 C   0  0  0  0  0  0  0  0  0  0  0  0
  128.3052  139.8874  132.1342 C   0  0  0  0  0  0  0  0  0  0  0  0
  129.0136  140.2268  130.8639 C   0  0  0  0  0  0  0  0  0  0  0  0
  129.1449  141.5703  130.5704 C   0  0  0  0  0  0  0  0  0  0  0  0
  129.7943  141.7274  129.4080 N   0  0  0  0  0  0  0  0  0  0  0  0
  130.0197  143.0559  128.8357 C   0  0  0  0  0  0  0  0  0  0  0  0
  130.1017  140.4715  128.9310 C   0  0  0  0  0  0  0  0  0  0  0  0
  129.6070  139.5180  129.8510 C   0  0  0  0  0  0  0  0  0  0  0  0
  129.8013  138.1459  129.5909 C   0  0  0  0  0  0  0  0  0  0  0  0
  130.4522  137.6699  128.4805 C   0  0  0  0  0  0  0  0  0  0  0  0
  130.9326  138.5710  127.5906 C   0  0  0  0  0  0  0  0  0  0  0  0
  131.7532  137.8017  126.2470 Cl  0  0  0  0  0  0  0  0  0  0  0  0
  130.7700  139.9673  127.7951 C   0  0  0  0  0  0  0  0  0  0  0  0
  131.4255  140.6086  126.6304 C   0  0  0  0  0  0  0  0  0  0  0  0
  131.1276  140.4500  125.2751 C   0  0  0  0  0  0  0  0  0  0  0  0
  130.1085  139.5984  124.6341 C   0  0  0  0  0  0  0  0  0  0  0  0
  128.7262  142.7574  131.3544 C   0  0  0  0  0  0  0  0  0  0  0  0
  127.4667  142.9088  131.8990 O   0  0  0  0  0  0  0  0  0  0  0  0
  129.4853  143.7247  131.5852 O   0  0  0  0  0  0  0  0  0  0  0  0
  131.7994  137.4899  134.1598 C   0  0  0  0  0  0  0  0  0  0  0  0
  134.8783  139.1903  130.7011 C   0  0  0  0  0  0  0  0  0  0  0  0
  1  2  1  0
  2  3  1  0
  3  4  2  0
  4  5  1  0
  5  6  1  0
  6  7  1  0
  7  8  1  0
  8  9  2  0
  9 10  1  0
 10 11  1  0
 10 12  1  0
 12 13  1  0
 13 14  1  0
 14 15  1  0
 15 16  1  0
 16 17  2  0
 17 18  1  0
 18 19  1  0
 19 20  2  0
 20 21  1  0
 21 22  2  0
 18 23  2  0
 23 24  1  0
 24 25  1  0
 25 26  1  0
 26 27  1  0
 27 28  1  0
 28 29  2  0
 29 30  1  0
 30 31  1  0
 30 32  1  0
 32 33  2  0
 33 34  1  0
 34 35  2  0
 35 36  1  0
 36 37  1  0
 36 38  2  0
 38 39  1  0
 39 40  2  0
 40 41  1  0
 29 42  1  0
 42 43  1  0
 42 44  2  0
 23 45  1  0
 12 46  2  0
 40  2  1  0
 39  4  1  0
 46  8  1  0
 45 15  2  0
 22 17  1  0
 33 28  1  0
 38 32  1  0
M  END
$$$$
