
     RDKit          3D

 46 52  0  0  0  0  0  0  0  0999 V2000
  173.5205  145.5621  131.2147 C   0  0  0  0  0  0  0  0  0  0  0  0
  172.5569  146.4320  130.5339 N   0  0  0  0  0  0  0  0  0  0  0  0
  172.9305  147.4651  129.7978 N   0  0  0  0  0  0  0  0  0  0  0  0
  171.8383  148.0643  129.3037 C   0  0  0  0  0  0  0  0  0  0  0  0
  171.6889  149.2446  128.4468 C   0  0  0  0  0  0  0  0  0  0  0  0
  172.3022  150.7643  129.2052 S   0  0  0  0  0  0  0  0  0  0  0  0
  171.3409  151.2581  130.6253 C   0  0  0  0  0  0  0  0  0  0  0  0
  170.4688  152.4565  130.4511 C   0  0  0  0  0  0  0  0  0  0  0  0
  170.7193  153.5974  131.1965 N   0  0  0  0  0  0  0  0  0  0  0  0
  169.8539  154.5200  130.8966 N   0  0  0  0  0  0  0  0  0  0  0  0
  169.7963  155.8714  131.4833 C   0  0  0  0  0  0  0  0  0  0  0  0
  169.0092  154.0010  129.9396 C   0  0  0  0  0  0  0  0  0  0  0  0
  167.8800  154.8210  129.3681 C   0  0  0  0  0  0  0  0  0  0  0  0
  166.2434  154.2373  129.8957 S   0  0  0  0  0  0  0  0  0  0  0  0
  165.2796  153.8170  128.4012 C   0  0  0  0  0  0  0  0  0  0  0  0
  165.2098  154.8987  127.5492 C   0  0  0  0  0  0  0  0  0  0  0  0
  164.5327  154.8269  126.3444 C   0  0  0  0  0  0  0  0  0  0  0  0
  163.9460  153.6128  126.0682 C   0  0  0  0  0  0  0  0  0  0  0  0
  163.2573  153.5687  124.8537 C   0  0  0  0  0  0  0  0  0  0  0  0
  163.1613  154.6142  124.0048 C   0  0  0  0  0  0  0  0  0  0  0  0
  163.7718  155.8044  124.3376 C   0  0  0  0  0  0  0  0  0  0  0  0
  164.4720  155.9375  125.5164 C   0  0  0  0  0  0  0  0  0  0  0  0
  164.0109  152.4919  126.9345 C   0  0  0  0  0  0  0  0  0  0  0  0
  163.3447  151.3899  126.4319 O   0  0  0  0  0  0  0  0  0  0  0  0
  163.6687  150.0717  126.1555 C   0  0  0  0  0  0  0  0  0  0  0  0
  165.1349  149.7761  126.0957 C   0  0  0  0  0  0  0  0  0  0  0  0
  165.4372  148.3324  126.3362 C   0  0  0  0  0  0  0  0  0  0  0  0
  166.7546  148.0736  126.9906 C   0  0  0  0  0  0  0  0  0  0  0  0
  167.8230  147.8257  126.1506 C   0  0  0  0  0  0  0  0  0  0  0  0
  168.9342  147.6095  126.8689 N   0  0  0  0  0  0  0  0  0  0  0  0
  170.2031  147.2682  126.2235 C   0  0  0  0  0  0  0  0  0  0  0  0
  168.5968  147.7228  128.2003 C   0  0  0  0  0  0  0  0  0  0  0  0
  167.2154  148.0157  128.2808 C   0  0  0  0  0  0  0  0  0  0  0  0
  166.6213  148.1868  129.5481 C   0  0  0  0  0  0  0  0  0  0  0  0
  167.3127  148.0848  130.7292 C   0  0  0  0  0  0  0  0  0  0  0  0
  168.6368  147.8057  130.6682 C   0  0  0  0  0  0  0  0  0  0  0  0
  169.3718  147.7330  132.2572 Cl  0  0  0  0  0  0  0  0  0  0  0  0
  169.2947  147.6226  129.4226 C   0  0  0  0  0  0  0  0  0  0  0  0
  170.7097  147.3475  129.7683 C   0  0  0  0  0  0  0  0  0  0  0  0
  171.2224  146.3119  130.5527 C   0  0  0  0  0  0  0  0  0  0  0  0
  170.5091  145.2331  131.2614 C   0  0  0  0  0  0  0  0  0  0  0  0
  167.8826  147.8203  124.6688 C   0  0  0  0  0  0  0  0  0  0  0  0
  166.8236  148.1800  123.8596 O   0  0  0  0  0  0  0  0  0  0  0  0
  168.9038  147.4851  124.0287 O   0  0  0  0  0  0  0  0  0  0  0  0
  164.6962  152.6108  128.1271 C   0  0  0  0  0  0  0  0  0  0  0  0
  169.3860  152.7083  129.6535 C   0  0  0  0  0  0  0  0  0  0  0  0
  1  2  1  0
  2  3  1  0
  3  4  2  0
  4  5  1  0
  5  6  1  0
  6  7  1  0
  7  8  1  0
  8  9  2  0
  9 10  1  0
 10 11  1  0
 10 12  1  0
 12 13  1  0
 13 14  1  0
 14 15  1  0
 15 16  1  0
 16 17  2  0
 17 18  1  0
 18 19  1  0
 19 20  2  0
 20 21  1  0
 21 22  2  0
 18 23  2  0
 23 24  1  0
 24 25  1  0
 25 26  1  0
 26 27  1  0
 27 28  1  0
 28 29  2  0
 29 30  1  0
 30 31  1  0
 30 32  1  0
 32 33  2  0
 33 34  1  0
 34 35  2  0
 35 36  1  0
 36 37  1  0
 36 38  2  0
 38 39  1  0
 39 40  2  0
 40 41  1  0
 29 42  1  0
 42 43  1  0
 42 44  2  0
 23 45  1  0
 12 46  2  0
 40  2  1  0
 39  4  1  0
 46  8  1  0
 45 15  2  0
 22 17  1  0
 33 28  1  0
 38 32  1  0
M  END
$$$$
