
     RDKit          3D

 46 52  0  0  0  0  0  0  0  0999 V2000
  120.9477  149.0989  153.1154 C   0  0  0  0  0  0  0  0  0  0  0  0
  121.3622  149.8896  151.9529 N   0  0  0  0  0  0  0  0  0  0  0  0
  120.7157  149.8483  150.8000 N   0  0  0  0  0  0  0  0  0  0  0  0
  121.3196  150.6731  149.9333 C   0  0  0  0  0  0  0  0  0  0  0  0
  121.0204  150.9898  148.5333 C   0  0  0  0  0  0  0  0  0  0  0  0
  121.1589  149.5668  147.4302 S   0  0  0  0  0  0  0  0  0  0  0  0
  122.8349  148.9706  147.2876 C   0  0  0  0  0  0  0  0  0  0  0  0
  123.5233  149.2326  145.9897 C   0  0  0  0  0  0  0  0  0  0  0  0
  123.8998  148.1662  145.1891 N   0  0  0  0  0  0  0  0  0  0  0  0
  124.4786  148.6057  144.1111 N   0  0  0  0  0  0  0  0  0  0  0  0
  125.0175  147.7721  143.0210 C   0  0  0  0  0  0  0  0  0  0  0  0
  124.4946  149.9818  144.1806 C   0  0  0  0  0  0  0  0  0  0  0  0
  125.1009  150.8117  143.0771 C   0  0  0  0  0  0  0  0  0  0  0  0
  126.6466  151.6265  143.5715 S   0  0  0  0  0  0  0  0  0  0  0  0
  126.4326  153.4291  143.3617 C   0  0  0  0  0  0  0  0  0  0  0  0
  126.0648  153.7262  142.0666 C   0  0  0  0  0  0  0  0  0  0  0  0
  125.8403  155.0298  141.6603 C   0  0  0  0  0  0  0  0  0  0  0  0
  126.0090  155.9889  142.6330 C   0  0  0  0  0  0  0  0  0  0  0  0
  125.7902  157.2975  142.1961 C   0  0  0  0  0  0  0  0  0  0  0  0
  125.4413  157.6204  140.9325 C   0  0  0  0  0  0  0  0  0  0  0  0
  125.2868  156.6140  140.0033 C   0  0  0  0  0  0  0  0  0  0  0  0
  125.4831  155.2946  140.3468 C   0  0  0  0  0  0  0  0  0  0  0  0
  126.3857  155.6975  143.9689 C   0  0  0  0  0  0  0  0  0  0  0  0
  126.4872  156.8308  144.7539 O   0  0  0  0  0  0  0  0  0  0  0  0
  125.9357  157.2675  145.9473 C   0  0  0  0  0  0  0  0  0  0  0  0
  124.7270  156.5117  146.4036 C   0  0  0  0  0  0  0  0  0  0  0  0
  124.5000  156.6316  147.8759 C   0  0  0  0  0  0  0  0  0  0  0  0
  123.8528  155.4413  148.5043 C   0  0  0  0  0  0  0  0  0  0  0  0
  122.4761  155.4737  148.6147 C   0  0  0  0  0  0  0  0  0  0  0  0
  122.0331  154.3494  149.1956 N   0  0  0  0  0  0  0  0  0  0  0  0
  120.6115  154.1502  149.4825 C   0  0  0  0  0  0  0  0  0  0  0  0
  123.1309  153.5615  149.4662 C   0  0  0  0  0  0  0  0  0  0  0  0
  124.2861  154.2514  149.0303 C   0  0  0  0  0  0  0  0  0  0  0  0
  125.5499  153.6473  149.1917 C   0  0  0  0  0  0  0  0  0  0  0  0
  125.7318  152.4094  149.7554 C   0  0  0  0  0  0  0  0  0  0  0  0
  124.6347  151.7358  150.1768 C   0  0  0  0  0  0  0  0  0  0  0  0
  125.0377  150.1684  150.8484 Cl  0  0  0  0  0  0  0  0  0  0  0  0
  123.3334  152.2893  150.0423 C   0  0  0  0  0  0  0  0  0  0  0  0
  122.4174  151.2665  150.6012 C   0  0  0  0  0  0  0  0  0  0  0  0
  122.4026  150.7319  151.8914 C   0  0  0  0  0  0  0  0  0  0  0  0
  123.2924  151.0158  153.0326 C   0  0  0  0  0  0  0  0  0  0  0  0
  121.5123  156.5040  148.1577 C   0  0  0  0  0  0  0  0  0  0  0  0
  121.5125  157.0407  146.8858 O   0  0  0  0  0  0  0  0  0  0  0  0
  120.6166  156.9742  148.8937 O   0  0  0  0  0  0  0  0  0  0  0  0
  126.6008  154.3820  144.3281 C   0  0  0  0  0  0  0  0  0  0  0  0
  123.8985  150.3847  145.3541 C   0  0  0  0  0  0  0  0  0  0  0  0
  1  2  1  0
  2  3  1  0
  3  4  2  0
  4  5  1  0
  5  6  1  0
  6  7  1  0
  7  8  1  0
  8  9  2  0
  9 10  1  0
 10 11  1  0
 10 12  1  0
 12 13  1  0
 13 14  1  0
 14 15  1  0
 15 16  1  0
 16 17  2  0
 17 18  1  0
 18 19  1  0
 19 20  2  0
 20 21  1  0
 21 22  2  0
 18 23  2  0
 23 24  1  0
 24 25  1  0
 25 26  1  0
 26 27  1  0
 27 28  1  0
 28 29  2  0
 29 30  1  0
 30 31  1  0
 30 32  1  0
 32 33  2  0
 33 34  1  0
 34 35  2  0
 35 36  1  0
 36 37  1  0
 36 38  2  0
 38 39  1  0
 39 40  2  0
 40 41  1  0
 29 42  1  0
 42 43  1  0
 42 44  2  0
 23 45  1  0
 12 46  2  0
 40  2  1  0
 39  4  1  0
 46  8  1  0
 45 15  2  0
 22 17  1  0
 33 28  1  0
 38 32  1  0
M  END
$$$$
