
     RDKit          3D

 46 52  0  0  0  0  0  0  0  0999 V2000
  133.9405  140.0398  117.9497 C   0  0  0  0  0  0  0  0  0  0  0  0
  134.6649  140.8819  118.9062 N   0  0  0  0  0  0  0  0  0  0  0  0
  135.5231  140.3849  119.7808 N   0  0  0  0  0  0  0  0  0  0  0  0
  136.0274  141.3878  120.5130 C   0  0  0  0  0  0  0  0  0  0  0  0
  136.9972  141.3875  121.6126 C   0  0  0  0  0  0  0  0  0  0  0  0
  136.4339  140.4760  123.0661 S   0  0  0  0  0  0  0  0  0  0  0  0
  135.0316  141.2458  123.8571 C   0  0  0  0  0  0  0  0  0  0  0  0
  135.2919  141.9094  125.1682 C   0  0  0  0  0  0  0  0  0  0  0  0
  134.6845  141.4202  126.3134 N   0  0  0  0  0  0  0  0  0  0  0  0
  135.0406  142.1324  127.3411 N   0  0  0  0  0  0  0  0  0  0  0  0
  134.5991  141.9203  128.7317 C   0  0  0  0  0  0  0  0  0  0  0  0
  135.8971  143.1129  126.8895 C   0  0  0  0  0  0  0  0  0  0  0  0
  136.4999  144.1193  127.8370 C   0  0  0  0  0  0  0  0  0  0  0  0
  135.8384  145.7945  127.6055 S   0  0  0  0  0  0  0  0  0  0  0  0
  137.2337  146.9095  127.2196 C   0  0  0  0  0  0  0  0  0  0  0  0
  138.1918  146.8476  128.2091 C   0  0  0  0  0  0  0  0  0  0  0  0
  139.3496  147.6026  128.1419 C   0  0  0  0  0  0  0  0  0  0  0  0
  139.4678  148.4048  127.0297 C   0  0  0  0  0  0  0  0  0  0  0  0
  140.6376  149.1671  126.9907 C   0  0  0  0  0  0  0  0  0  0  0  0
  141.5877  149.1369  127.9496 C   0  0  0  0  0  0  0  0  0  0  0  0
  141.4118  148.3118  129.0397 C   0  0  0  0  0  0  0  0  0  0  0  0
  140.2874  147.5252  129.1604 C   0  0  0  0  0  0  0  0  0  0  0  0
  138.4910  148.4774  126.0041 C   0  0  0  0  0  0  0  0  0  0  0  0
  138.8423  149.3531  124.9938 O   0  0  0  0  0  0  0  0  0  0  0  0
  138.9914  149.2778  123.6187 C   0  0  0  0  0  0  0  0  0  0  0  0
  139.0870  147.8907  123.0642 C   0  0  0  0  0  0  0  0  0  0  0  0
  138.7084  147.8250  121.6200 C   0  0  0  0  0  0  0  0  0  0  0  0
  138.0916  146.5323  121.1969 C   0  0  0  0  0  0  0  0  0  0  0  0
  138.9487  145.5780  120.6840 C   0  0  0  0  0  0  0  0  0  0  0  0
  138.2635  144.4765  120.3453 N   0  0  0  0  0  0  0  0  0  0  0  0
  138.9267  143.3286  119.7243 C   0  0  0  0  0  0  0  0  0  0  0  0
  136.9376  144.7038  120.6446 C   0  0  0  0  0  0  0  0  0  0  0  0
  136.8251  146.0066  121.1835 C   0  0  0  0  0  0  0  0  0  0  0  0
  135.5572  146.4804  121.5786 C   0  0  0  0  0  0  0  0  0  0  0  0
  134.4052  145.7426  121.4708 C   0  0  0  0  0  0  0  0  0  0  0  0
  134.4970  144.4924  120.9575 C   0  0  0  0  0  0  0  0  0  0  0  0
  132.9449  143.6806  120.9101 Cl  0  0  0  0  0  0  0  0  0  0  0  0
  135.7450  143.9566  120.5414 C   0  0  0  0  0  0  0  0  0  0  0  0
  135.4376  142.5903  120.0553 C   0  0  0  0  0  0  0  0  0  0  0  0
  134.5719  142.2133  119.0262 C   0  0  0  0  0  0  0  0  0  0  0  0
  133.7204  143.0538  118.1642 C   0  0  0  0  0  0  0  0  0  0  0  0
  140.4227  145.6150  120.5249 C   0  0  0  0  0  0  0  0  0  0  0  0
  141.1602  144.5785  119.9886 O   0  0  0  0  0  0  0  0  0  0  0  0
  141.1213  146.5944  120.8680 O   0  0  0  0  0  0  0  0  0  0  0  0
  137.3507  147.7071  126.1148 C   0  0  0  0  0  0  0  0  0  0  0  0
  136.0610  142.9819  125.5290 C   0  0  0  0  0  0  0  0  0  0  0  0
  1  2  1  0
  2  3  1  0
  3  4  2  0
  4  5  1  0
  5  6  1  0
  6  7  1  0
  7  8  1  0
  8  9  2  0
  9 10  1  0
 10 11  1  0
 10 12  1  0
 12 13  1  0
 13 14  1  0
 14 15  1  0
 15 16  1  0
 16 17  2  0
 17 18  1  0
 18 19  1  0
 19 20  2  0
 20 21  1  0
 21 22  2  0
 18 23  2  0
 23 24  1  0
 24 25  1  0
 25 26  1  0
 26 27  1  0
 27 28  1  0
 28 29  2  0
 29 30  1  0
 30 31  1  0
 30 32  1  0
 32 33  2  0
 33 34  1  0
 34 35  2  0
 35 36  1  0
 36 37  1  0
 36 38  2  0
 38 39  1  0
 39 40  2  0
 40 41  1  0
 29 42  1  0
 42 43  1  0
 42 44  2  0
 23 45  1  0
 12 46  2  0
 40  2  1  0
 39  4  1  0
 46  8  1  0
 45 15  2  0
 22 17  1  0
 33 28  1  0
 38 32  1  0
M  END
$$$$
