
     RDKit          3D

 45 51  0  0  0  0  0  0  0  0999 V2000
  169.3660  159.7508  110.1111 C   0  0  2  0  0  0  0  0  0  0  0  0
  169.6198  160.3929  111.3971 C   0  0  0  0  0  0  0  0  0  0  0  0
  170.3864  161.6804  111.4300 C   0  0  0  0  0  0  0  0  0  0  0  0
  171.6241  161.8342  112.0165 C   0  0  0  0  0  0  0  0  0  0  0  0
  172.2814  163.0904  112.0128 C   0  0  0  0  0  0  0  0  0  0  0  0
  171.7634  164.2157  111.4474 C   0  0  0  0  0  0  0  0  0  0  0  0
  172.2975  165.4800  111.3779 O   0  0  0  0  0  0  0  0  0  0  0  0
  173.1796  166.3711  111.7729 C   0  0  0  0  0  0  0  0  0  0  0  0
  174.5148  166.2868  111.3192 C   0  0  0  0  0  0  0  0  0  0  0  0
  175.4087  167.2395  111.7629 C   0  0  0  0  0  0  0  0  0  0  0  0
  176.8210  167.0201  111.2551 C   0  0  0  0  0  0  0  0  0  0  0  0
  177.0265  165.5368  111.4667 C   0  0  0  0  0  0  0  0  0  0  0  0
  176.1980  164.6733  110.6810 N   0  0  0  0  0  4  0  0  0  0  0  0
  176.0466  163.4620  111.5253 C   0  0  0  0  0  0  0  0  0  0  0  0
  177.0438  164.2617  109.5660 C   0  0  0  0  0  0  0  0  0  0  0  0
  174.9811  165.2442  110.3485 C   0  0  2  0  0  0  0  0  0  0  0  0
  174.7013  165.6727  108.9307 C   0  0  0  0  0  0  0  0  0  0  0  0
  174.4202  164.6035  107.9324 C   0  0  0  0  0  0  0  0  0  0  0  0
  173.4503  163.6298  107.9103 C   0  0  0  0  0  0  0  0  0  0  0  0
  173.4309  162.7329  106.8538 C   0  0  0  0  0  0  0  0  0  0  0  0
  172.5703  161.6769  106.6158 O   0  0  0  0  0  0  0  0  0  0  0  0
  171.5480  160.9440  107.1877 C   0  0  0  0  0  0  0  0  0  0  0  0
  170.8529  160.2114  106.1875 C   0  0  0  0  0  0  0  0  0  0  0  0
  171.2080  160.2641  104.8449 O   0  0  0  0  0  0  0  0  0  0  0  0
  172.1024  161.2288  104.3777 C   0  0  0  0  0  0  0  0  0  0  0  0
  169.7989  159.4166  106.4943 C   0  0  0  0  0  0  0  0  0  0  0  0
  169.4087  159.3330  107.8110 C   0  0  0  0  0  0  0  0  0  0  0  0
  168.2465  158.4459  108.0492 C   0  0  0  0  0  0  0  0  0  0  0  0
  168.1570  157.9309  109.4165 C   0  0  0  0  0  0  0  0  0  0  0  0
  169.3465  158.2987  110.1478 N   0  0  0  0  0  0  0  0  0  0  0  0
  169.3042  157.6586  111.3955 C   0  0  0  0  0  0  0  0  0  0  0  0
  170.0852  160.0577  108.8512 C   0  0  0  0  0  0  0  0  0  0  0  0
  171.1505  160.8530  108.5234 C   0  0  0  0  0  0  0  0  0  0  0  0
  174.4030  162.8455  105.8298 C   0  0  0  0  0  0  0  0  0  0  0  0
  174.4211  161.9505  104.7270 O   0  0  0  0  0  0  0  0  0  0  0  0
  175.3737  163.7960  105.8172 C   0  0  0  0  0  0  0  0  0  0  0  0
  175.3675  164.6637  106.8740 C   0  0  0  0  0  0  0  0  0  0  0  0
  175.0611  168.2464  112.6069 C   0  0  0  0  0  0  0  0  0  0  0  0
  173.7601  168.3730  113.0789 C   0  0  0  0  0  0  0  0  0  0  0  0
  173.3694  169.3659  113.9261 O   0  0  0  0  0  0  0  0  0  0  0  0
  174.2829  170.3897  114.2612 C   0  0  0  0  0  0  0  0  0  0  0  0
  172.8695  167.4253  112.6397 C   0  0  0  0  0  0  0  0  0  0  0  0
  171.5558  167.5967  113.1448 O   0  0  0  0  0  0  0  0  0  0  0  0
  170.5241  164.0762  110.8566 C   0  0  0  0  0  0  0  0  0  0  0  0
  169.8669  162.8285  110.8588 C   0  0  0  0  0  0  0  0  0  0  0  0
  1  2  1  0
  2  3  1  0
  3  4  2  0
  4  5  1  0
  5  6  2  0
  6  7  1  0
  7  8  1  0
  8  9  2  0
  9 10  1  0
 10 11  1  0
 11 12  1  0
 12 13  1  0
 13 14  1  0
 13 15  1  0
 16 13  1  6
 16 17  1  0
 17 18  1  0
 18 19  2  0
 19 20  1  0
 20 21  1  0
 21 22  1  0
 22 23  2  0
 23 24  1  0
 24 25  1  0
 23 26  1  0
 26 27  2  0
 27 28  1  0
 28 29  1  0
 29 30  1  0
 30 31  1  0
 27 32  1  0
 32 33  2  0
 20 34  2  0
 34 35  1  0
 34 36  1  0
 36 37  2  0
 10 38  2  0
 38 39  1  0
 39 40  1  0
 40 41  1  0
 39 42  2  0
 42 43  1  0
  6 44  1  0
 44 45  2  0
  1 30  1  1
 32  1  1  0
 45  3  1  0
 42  8  1  0
 16  9  1  0
 37 18  1  0
 33 22  1  0
M  CHG  1  13   1
M  END
$$$$
