
     RDKit          3D

 45 51  0  0  0  0  0  0  0  0999 V2000
  191.4801  175.7184  120.4317 C   0  0  2  0  0  0  0  0  0  0  0  0
  192.0170  175.0532  121.6147 C   0  0  0  0  0  0  0  0  0  0  0  0
  191.4873  175.4290  122.9655 C   0  0  0  0  0  0  0  0  0  0  0  0
  192.2340  176.0341  123.9534 C   0  0  0  0  0  0  0  0  0  0  0  0
  191.6599  176.3503  125.2106 C   0  0  0  0  0  0  0  0  0  0  0  0
  190.3638  176.0924  125.5388 C   0  0  0  0  0  0  0  0  0  0  0  0
  189.6952  176.3490  126.7117 O   0  0  0  0  0  0  0  0  0  0  0  0
  189.7064  176.6664  127.9875 C   0  0  0  0  0  0  0  0  0  0  0  0
  189.9479  178.0027  128.3767 C   0  0  0  0  0  0  0  0  0  0  0  0
  189.9560  178.2905  129.7260 C   0  0  0  0  0  0  0  0  0  0  0  0
  190.2771  179.7418  130.0283 C   0  0  0  0  0  0  0  0  0  0  0  0
  191.4538  180.0207  129.1201 C   0  0  0  0  0  0  0  0  0  0  0  0
  191.1834  179.9723  127.7151 N   0  0  0  0  0  4  0  0  0  0  0  0
  192.4758  179.5508  127.1193 C   0  0  0  0  0  0  0  0  0  0  0  0
  191.0153  181.3670  127.3217 C   0  0  0  0  0  0  0  0  0  0  0  0
  190.1452  179.1152  127.3918 C   0  0  2  0  0  0  0  0  0  0  0  0
  188.8178  179.6633  126.9338 C   0  0  0  0  0  0  0  0  0  0  0  0
  188.7393  180.2065  125.5491 C   0  0  0  0  0  0  0  0  0  0  0  0
  188.9986  179.6126  124.3369 C   0  0  0  0  0  0  0  0  0  0  0  0
  188.8660  180.3687  123.1829 C   0  0  0  0  0  0  0  0  0  0  0  0
  189.0743  180.0022  121.8658 O   0  0  0  0  0  0  0  0  0  0  0  0
  189.5555  178.9763  121.0750 C   0  0  0  0  0  0  0  0  0  0  0  0
  189.1061  179.1387  119.7365 C   0  0  0  0  0  0  0  0  0  0  0  0
  188.3052  180.2049  119.3448 O   0  0  0  0  0  0  0  0  0  0  0  0
  187.0436  180.3990  119.9103 C   0  0  0  0  0  0  0  0  0  0  0  0
  189.4384  178.2547  118.7645 C   0  0  0  0  0  0  0  0  0  0  0  0
  190.2292  177.1812  119.1042 C   0  0  0  0  0  0  0  0  0  0  0  0
  190.5357  176.2674  117.9793 C   0  0  0  0  0  0  0  0  0  0  0  0
  191.7498  175.4718  118.1684 C   0  0  0  0  0  0  0  0  0  0  0  0
  192.4371  175.9182  119.3572 N   0  0  0  0  0  0  0  0  0  0  0  0
  193.6695  175.2509  119.4225 C   0  0  0  0  0  0  0  0  0  0  0  0
  190.7036  176.9817  120.4458 C   0  0  0  0  0  0  0  0  0  0  0  0
  190.3610  177.8870  121.4142 C   0  0  0  0  0  0  0  0  0  0  0  0
  188.4657  181.7236  123.2830 C   0  0  0  0  0  0  0  0  0  0  0  0
  188.3146  182.5365  122.1279 O   0  0  0  0  0  0  0  0  0  0  0  0
  188.1985  182.3424  124.4627 C   0  0  0  0  0  0  0  0  0  0  0  0
  188.3410  181.5707  125.5824 C   0  0  0  0  0  0  0  0  0  0  0  0
  189.7408  177.3525  130.6857 C   0  0  0  0  0  0  0  0  0  0  0  0
  189.4967  176.0254  130.3529 C   0  0  0  0  0  0  0  0  0  0  0  0
  189.2769  175.0538  131.2824 O   0  0  0  0  0  0  0  0  0  0  0  0
  188.3769  175.3005  132.3425 C   0  0  0  0  0  0  0  0  0  0  0  0
  189.4895  175.7367  129.0110 C   0  0  0  0  0  0  0  0  0  0  0  0
  189.2339  174.3727  128.7203 O   0  0  0  0  0  0  0  0  0  0  0  0
  189.6044  175.4862  124.5589 C   0  0  0  0  0  0  0  0  0  0  0  0
  190.1719  175.1695  123.3074 C   0  0  0  0  0  0  0  0  0  0  0  0
  1  2  1  0
  2  3  1  0
  3  4  2  0
  4  5  1  0
  5  6  2  0
  6  7  1  0
  7  8  1  0
  8  9  2  0
  9 10  1  0
 10 11  1  0
 11 12  1  0
 12 13  1  0
 13 14  1  0
 13 15  1  0
 16 13  1  1
 16 17  1  0
 17 18  1  0
 18 19  2  0
 19 20  1  0
 20 21  1  0
 21 22  1  0
 22 23  2  0
 23 24  1  0
 24 25  1  0
 23 26  1  0
 26 27  2  0
 27 28  1  0
 28 29  1  0
 29 30  1  0
 30 31  1  0
 27 32  1  0
 32 33  2  0
 20 34  2  0
 34 35  1  0
 34 36  1  0
 36 37  2  0
 10 38  2  0
 38 39  1  0
 39 40  1  0
 40 41  1  0
 39 42  2  0
 42 43  1  0
  6 44  1  0
 44 45  2  0
  1 30  1  6
 32  1  1  0
 45  3  1  0
 42  8  1  0
 16  9  1  0
 37 18  1  0
 33 22  1  0
M  CHG  1  13   1
M  END
$$$$
