
     RDKit          3D

 45 51  0  0  0  0  0  0  0  0999 V2000
  149.4069  165.9666  128.3926 C   0  0  2  0  0  0  0  0  0  0  0  0
  147.9545  165.9973  128.2510 C   0  0  0  0  0  0  0  0  0  0  0  0
  147.1796  167.0895  128.9241 C   0  0  0  0  0  0  0  0  0  0  0  0
  146.2725  166.8865  129.9417 C   0  0  0  0  0  0  0  0  0  0  0  0
  145.5720  167.9743  130.5215 C   0  0  0  0  0  0  0  0  0  0  0  0
  145.7307  169.2706  130.1358 C   0  0  0  0  0  0  0  0  0  0  0  0
  145.1172  170.4029  130.6153 O   0  0  0  0  0  0  0  0  0  0  0  0
  144.1632  170.9765  131.3147 C   0  0  0  0  0  0  0  0  0  0  0  0
  144.2313  170.9793  132.7257 C   0  0  0  0  0  0  0  0  0  0  0  0
  143.2062  171.5878  133.4203 C   0  0  0  0  0  0  0  0  0  0  0  0
  143.3569  171.4842  134.9260 C   0  0  0  0  0  0  0  0  0  0  0  0
  143.7393  170.0346  135.1254 C   0  0  0  0  0  0  0  0  0  0  0  0
  145.0060  169.6430  134.5853 N   0  0  0  0  0  4  0  0  0  0  0  0
  144.8223  168.2077  134.2546 C   0  0  0  0  0  0  0  0  0  0  0  0
  145.9166  169.6616  135.7247 C   0  0  0  0  0  0  0  0  0  0  0  0
  145.3837  170.3967  133.4869 C   0  0  2  0  0  0  0  0  0  0  0  0
  146.5089  171.3937  133.5962 C   0  0  0  0  0  0  0  0  0  0  0  0
  147.8982  170.8590  133.6491 C   0  0  0  0  0  0  0  0  0  0  0  0
  148.5871  170.0635  132.7649 C   0  0  0  0  0  0  0  0  0  0  0  0
  149.8840  169.6879  133.0780 C   0  0  0  0  0  0  0  0  0  0  0  0
  150.7651  168.8980  132.3622 O   0  0  0  0  0  0  0  0  0  0  0  0
  150.8523  168.0797  131.2522 C   0  0  0  0  0  0  0  0  0  0  0  0
  152.2140  167.8847  130.8944 C   0  0  0  0  0  0  0  0  0  0  0  0
  153.2600  168.4582  131.6074 O   0  0  0  0  0  0  0  0  0  0  0  0
  153.0246  169.1330  132.8067 C   0  0  0  0  0  0  0  0  0  0  0  0
  152.5656  167.1224  129.8305 C   0  0  0  0  0  0  0  0  0  0  0  0
  151.5644  166.5343  129.0924 C   0  0  0  0  0  0  0  0  0  0  0  0
  152.0434  165.7254  127.9474 C   0  0  0  0  0  0  0  0  0  0  0  0
  151.0979  164.7007  127.5016 C   0  0  0  0  0  0  0  0  0  0  0  0
  149.9886  164.6359  128.4237 N   0  0  0  0  0  0  0  0  0  0  0  0
  149.1864  163.5433  128.0616 C   0  0  0  0  0  0  0  0  0  0  0  0
  150.1764  166.7072  129.4214 C   0  0  0  0  0  0  0  0  0  0  0  0
  149.8398  167.4777  130.5021 C   0  0  0  0  0  0  0  0  0  0  0  0
  150.4621  170.1342  134.2915 C   0  0  0  0  0  0  0  0  0  0  0  0
  151.7882  169.7764  134.6535 O   0  0  0  0  0  0  0  0  0  0  0  0
  149.8127  170.9230  135.1871 C   0  0  0  0  0  0  0  0  0  0  0  0
  148.5347  171.2740  134.8506 C   0  0  0  0  0  0  0  0  0  0  0  0
  142.1465  172.1807  132.8098 C   0  0  0  0  0  0  0  0  0  0  0  0
  142.0356  172.2060  131.4247 C   0  0  0  0  0  0  0  0  0  0  0  0
  140.9907  172.7884  130.7727 O   0  0  0  0  0  0  0  0  0  0  0  0
  139.8428  173.1670  131.5032 C   0  0  0  0  0  0  0  0  0  0  0  0
  143.0538  171.5999  130.7319 C   0  0  0  0  0  0  0  0  0  0  0  0
  142.8989  171.6532  129.3235 O   0  0  0  0  0  0  0  0  0  0  0  0
  146.6359  169.4884  129.1172 C   0  0  0  0  0  0  0  0  0  0  0  0
  147.3342  168.4090  128.5376 C   0  0  0  0  0  0  0  0  0  0  0  0
  1  2  1  0
  2  3  1  0
  3  4  2  0
  4  5  1  0
  5  6  2  0
  6  7  1  0
  7  8  1  0
  8  9  2  0
  9 10  1  0
 10 11  1  0
 11 12  1  0
 12 13  1  0
 13 14  1  0
 13 15  1  0
 16 13  1  1
 16 17  1  0
 17 18  1  0
 18 19  2  0
 19 20  1  0
 20 21  1  0
 21 22  1  0
 22 23  2  0
 23 24  1  0
 24 25  1  0
 23 26  1  0
 26 27  2  0
 27 28  1  0
 28 29  1  0
 29 30  1  0
 30 31  1  0
 27 32  1  0
 32 33  2  0
 20 34  2  0
 34 35  1  0
 34 36  1  0
 36 37  2  0
 10 38  2  0
 38 39  1  0
 39 40  1  0
 40 41  1  0
 39 42  2  0
 42 43  1  0
  6 44  1  0
 44 45  2  0
  1 30  1  1
 32  1  1  0
 45  3  1  0
 42  8  1  0
 16  9  1  0
 37 18  1  0
 33 22  1  0
M  CHG  1  13   1
M  END
$$$$
