
     RDKit          3D

 45 51  0  0  0  0  0  0  0  0999 V2000
  174.2097  140.0809  123.8878 C   0  0  2  0  0  0  0  0  0  0  0  0
  173.1158  140.4465  124.7823 C   0  0  0  0  0  0  0  0  0  0  0  0
  172.2598  141.6287  124.4414 C   0  0  0  0  0  0  0  0  0  0  0  0
  172.1924  142.7827  125.1919 C   0  0  0  0  0  0  0  0  0  0  0  0
  171.3493  143.8552  124.8055 C   0  0  0  0  0  0  0  0  0  0  0  0
  170.5604  143.8378  123.6958 C   0  0  0  0  0  0  0  0  0  0  0  0
  169.7086  144.8046  123.2180 O   0  0  0  0  0  0  0  0  0  0  0  0
  169.0307  145.9175  123.3920 C   0  0  0  0  0  0  0  0  0  0  0  0
  169.7028  147.1598  123.3722 C   0  0  0  0  0  0  0  0  0  0  0  0
  168.9535  148.3022  123.5643 C   0  0  0  0  0  0  0  0  0  0  0  0
  169.7852  149.5707  123.5761 C   0  0  0  0  0  0  0  0  0  0  0  0
  170.9552  149.1959  124.4580 C   0  0  0  0  0  0  0  0  0  0  0  0
  171.8198  148.1751  123.9479 N   0  0  0  0  0  4  0  0  0  0  0  0
  172.3515  147.5180  125.1679 C   0  0  0  0  0  0  0  0  0  0  0  0
  172.9506  148.8983  123.3767 C   0  0  0  0  0  0  0  0  0  0  0  0
  171.1724  147.2868  123.1058 C   0  0  2  0  0  0  0  0  0  0  0  0
  171.4460  147.3033  121.6236 C   0  0  0  0  0  0  0  0  0  0  0  0
  172.7396  146.7310  121.1571 C   0  0  0  0  0  0  0  0  0  0  0  0
  173.2752  145.4755  121.3193 C   0  0  0  0  0  0  0  0  0  0  0  0
  174.5305  145.2139  120.7932 C   0  0  0  0  0  0  0  0  0  0  0  0
  175.2718  144.0470  120.8322 O   0  0  0  0  0  0  0  0  0  0  0  0
  175.3000  142.7829  121.3895 C   0  0  0  0  0  0  0  0  0  0  0  0
  176.2013  141.9517  120.6705 C   0  0  0  0  0  0  0  0  0  0  0  0
  176.9255  142.4109  119.5768 O   0  0  0  0  0  0  0  0  0  0  0  0
  177.0745  143.7786  119.3392 C   0  0  0  0  0  0  0  0  0  0  0  0
  176.4030  140.6573  121.0176 C   0  0  0  0  0  0  0  0  0  0  0  0
  175.7071  140.1564  122.0937 C   0  0  0  0  0  0  0  0  0  0  0  0
  175.9880  138.7334  122.3947 C   0  0  0  0  0  0  0  0  0  0  0  0
  175.7061  138.3474  123.7783 C   0  0  0  0  0  0  0  0  0  0  0  0
  175.3774  139.5238  124.5483 N   0  0  0  0  0  0  0  0  0  0  0  0
  175.2708  139.1453  125.8951 C   0  0  0  0  0  0  0  0  0  0  0  0
  174.7871  140.9641  122.8460 C   0  0  0  0  0  0  0  0  0  0  0  0
  174.5987  142.2709  122.4833 C   0  0  0  0  0  0  0  0  0  0  0  0
  175.2217  146.2399  120.1036 C   0  0  0  0  0  0  0  0  0  0  0  0
  176.5090  146.0175  119.5459 O   0  0  0  0  0  0  0  0  0  0  0  0
  174.7225  147.4904  119.9217 C   0  0  0  0  0  0  0  0  0  0  0  0
  173.4839  147.7175  120.4544 C   0  0  0  0  0  0  0  0  0  0  0  0
  167.6098  148.2824  123.7667 C   0  0  0  0  0  0  0  0  0  0  0  0
  166.9035  147.0858  123.7924 C   0  0  0  0  0  0  0  0  0  0  0  0
  165.5574  147.0206  123.9928 O   0  0  0  0  0  0  0  0  0  0  0  0
  165.0348  147.2876  125.2775 C   0  0  0  0  0  0  0  0  0  0  0  0
  167.6473  145.9479  123.6029 C   0  0  0  0  0  0  0  0  0  0  0  0
  166.8842  144.7533  123.6344 O   0  0  0  0  0  0  0  0  0  0  0  0
  170.6178  142.6879  122.9350 C   0  0  0  0  0  0  0  0  0  0  0  0
  171.4546  141.6188  123.3162 C   0  0  0  0  0  0  0  0  0  0  0  0
  1  2  1  0
  2  3  1  0
  3  4  2  0
  4  5  1  0
  5  6  2  0
  6  7  1  0
  7  8  1  0
  8  9  2  0
  9 10  1  0
 10 11  1  0
 11 12  1  0
 12 13  1  0
 13 14  1  0
 13 15  1  0
 16 13  1  6
 16 17  1  0
 17 18  1  0
 18 19  2  0
 19 20  1  0
 20 21  1  0
 21 22  1  0
 22 23  2  0
 23 24  1  0
 24 25  1  0
 23 26  1  0
 26 27  2  0
 27 28  1  0
 28 29  1  0
 29 30  1  0
 30 31  1  0
 27 32  1  0
 32 33  2  0
 20 34  2  0
 34 35  1  0
 34 36  1  0
 36 37  2  0
 10 38  2  0
 38 39  1  0
 39 40  1  0
 40 41  1  0
 39 42  2  0
 42 43  1  0
  6 44  1  0
 44 45  2  0
  1 30  1  1
 32  1  1  0
 45  3  1  0
 42  8  1  0
 16  9  1  0
 37 18  1  0
 33 22  1  0
M  CHG  1  13   1
M  END
$$$$
