
     RDKit          3D

 45 51  0  0  0  0  0  0  0  0999 V2000
  183.0991  183.2264  143.3600 C   0  0  2  0  0  0  0  0  0  0  0  0
  183.9593  183.3183  144.5356 C   0  0  0  0  0  0  0  0  0  0  0  0
  184.4270  182.0572  145.1969 C   0  0  0  0  0  0  0  0  0  0  0  0
  184.0793  181.6733  146.4741 C   0  0  0  0  0  0  0  0  0  0  0  0
  184.5719  180.4665  147.0320 C   0  0  0  0  0  0  0  0  0  0  0  0
  185.4030  179.6110  146.3750 C   0  0  0  0  0  0  0  0  0  0  0  0
  185.9433  178.4220  146.8025 O   0  0  0  0  0  0  0  0  0  0  0  0
  186.2275  177.5783  147.7698 C   0  0  0  0  0  0  0  0  0  0  0  0
  185.2055  176.7774  148.3262 C   0  0  0  0  0  0  0  0  0  0  0  0
  185.5469  175.9096  149.3430 C   0  0  0  0  0  0  0  0  0  0  0  0
  184.3634  175.1409  149.8989 C   0  0  0  0  0  0  0  0  0  0  0  0
  183.3090  176.2142  150.0522 C   0  0  0  0  0  0  0  0  0  0  0  0
  182.8428  176.8097  148.8366 N   0  0  0  0  0  4  0  0  0  0  0  0
  182.4575  178.1851  149.2402 C   0  0  0  0  0  0  0  0  0  0  0  0
  181.5862  176.1275  148.5477 C   0  0  0  0  0  0  0  0  0  0  0  0
  183.7919  176.7986  147.8284 C   0  0  2  0  0  0  0  0  0  0  0  0
  183.6315  175.8856  146.6398 C   0  0  0  0  0  0  0  0  0  0  0  0
  182.6161  176.2610  145.6167 C   0  0  0  0  0  0  0  0  0  0  0  0
  182.4875  177.3989  144.8564 C   0  0  0  0  0  0  0  0  0  0  0  0
  181.4161  177.4987  143.9828 C   0  0  0  0  0  0  0  0  0  0  0  0
  181.0737  178.5318  143.1297 O   0  0  0  0  0  0  0  0  0  0  0  0
  181.4009  179.8314  142.7931 C   0  0  0  0  0  0  0  0  0  0  0  0
  180.8556  180.1593  141.5222 C   0  0  0  0  0  0  0  0  0  0  0  0
  180.1032  179.2567  140.7801 O   0  0  0  0  0  0  0  0  0  0  0  0
  178.7139  179.3725  140.7060 C   0  0  0  0  0  0  0  0  0  0  0  0
  181.0426  181.3799  140.9637 C   0  0  0  0  0  0  0  0  0  0  0  0
  181.7823  182.3076  141.6604 C   0  0  0  0  0  0  0  0  0  0  0  0
  181.9375  183.6091  140.9701 C   0  0  0  0  0  0  0  0  0  0  0  0
  182.2276  184.7304  141.8652 C   0  0  0  0  0  0  0  0  0  0  0  0
  182.1191  184.2916  143.2366 N   0  0  0  0  0  0  0  0  0  0  0  0
  182.2433  185.4179  144.0639 C   0  0  0  0  0  0  0  0  0  0  0  0
  182.3503  182.0148  142.9474 C   0  0  0  0  0  0  0  0  0  0  0  0
  182.1479  180.7776  143.4981 C   0  0  0  0  0  0  0  0  0  0  0  0
  180.4903  176.4303  143.8951 C   0  0  0  0  0  0  0  0  0  0  0  0
  179.3785  176.4870  143.0129 O   0  0  0  0  0  0  0  0  0  0  0  0
  180.5873  175.2906  144.6283 C   0  0  0  0  0  0  0  0  0  0  0  0
  181.6532  175.2239  145.4821 C   0  0  0  0  0  0  0  0  0  0  0  0
  186.8125  175.7925  149.8243 C   0  0  0  0  0  0  0  0  0  0  0  0
  187.8523  176.5567  149.3082 C   0  0  0  0  0  0  0  0  0  0  0  0
  189.1343  176.4713  149.7615 O   0  0  0  0  0  0  0  0  0  0  0  0
  189.4252  175.6363  150.8628 C   0  0  0  0  0  0  0  0  0  0  0  0
  187.5144  177.4217  148.2975 C   0  0  0  0  0  0  0  0  0  0  0  0
  188.6070  178.1771  147.8014 O   0  0  0  0  0  0  0  0  0  0  0  0
  185.7597  179.9833  145.0949 C   0  0  0  0  0  0  0  0  0  0  0  0
  185.2723  181.1831  144.5367 C   0  0  0  0  0  0  0  0  0  0  0  0
  1  2  1  0
  2  3  1  0
  3  4  2  0
  4  5  1  0
  5  6  2  0
  6  7  1  0
  7  8  1  0
  8  9  2  0
  9 10  1  0
 10 11  1  0
 11 12  1  0
 12 13  1  0
 13 14  1  0
 13 15  1  0
 16 13  1  1
 16 17  1  0
 17 18  1  0
 18 19  2  0
 19 20  1  0
 20 21  1  0
 21 22  1  0
 22 23  2  0
 23 24  1  0
 24 25  1  0
 23 26  1  0
 26 27  2  0
 27 28  1  0
 28 29  1  0
 29 30  1  0
 30 31  1  0
 27 32  1  0
 32 33  2  0
 20 34  2  0
 34 35  1  0
 34 36  1  0
 36 37  2  0
 10 38  2  0
 38 39  1  0
 39 40  1  0
 40 41  1  0
 39 42  2  0
 42 43  1  0
  6 44  1  0
 44 45  2  0
  1 30  1  1
 32  1  1  0
 45  3  1  0
 42  8  1  0
 16  9  1  0
 37 18  1  0
 33 22  1  0
M  CHG  1  13   1
M  END
$$$$
