
     RDKit          3D

 45 51  0  0  0  0  0  0  0  0999 V2000
  137.9803  157.8762  158.2905 C   0  0  2  0  0  0  0  0  0  0  0  0
  136.9330  157.8836  157.2739 C   0  0  0  0  0  0  0  0  0  0  0  0
  136.5658  159.1790  156.6154 C   0  0  0  0  0  0  0  0  0  0  0  0
  135.3378  159.7928  156.7369 C   0  0  0  0  0  0  0  0  0  0  0  0
  135.0654  161.0159  156.0735 C   0  0  0  0  0  0  0  0  0  0  0  0
  135.9646  161.6680  155.2858 C   0  0  0  0  0  0  0  0  0  0  0  0
  135.8230  162.8483  154.5964 O   0  0  0  0  0  0  0  0  0  0  0  0
  135.0611  163.8005  154.1055 C   0  0  0  0  0  0  0  0  0  0  0  0
  134.5170  164.7789  154.9670 C   0  0  0  0  0  0  0  0  0  0  0  0
  133.7185  165.7569  154.4105 C   0  0  0  0  0  0  0  0  0  0  0  0
  133.1478  166.7201  155.4337 C   0  0  0  0  0  0  0  0  0  0  0  0
  132.6730  165.7974  156.5340 C   0  0  0  0  0  0  0  0  0  0  0  0
  133.6951  165.0683  157.2219 N   0  0  0  0  0  4  0  0  0  0  0  0
  133.0145  163.8203  157.6487 C   0  0  0  0  0  0  0  0  0  0  0  0
  133.9243  165.8209  158.4504 C   0  0  0  0  0  0  0  0  0  0  0  0
  134.8089  164.8237  156.4365 C   0  0  2  0  0  0  0  0  0  0  0  0
  136.1033  165.5494  156.7010 C   0  0  0  0  0  0  0  0  0  0  0  0
  136.9011  165.1227  157.8843 C   0  0  0  0  0  0  0  0  0  0  0  0
  137.4317  163.8983  158.2138 C   0  0  0  0  0  0  0  0  0  0  0  0
  138.1231  163.7718  159.4084 C   0  0  0  0  0  0  0  0  0  0  0  0
  138.7335  162.6574  159.9543 O   0  0  0  0  0  0  0  0  0  0  0  0
  138.8843  161.2945  159.7838 C   0  0  0  0  0  0  0  0  0  0  0  0
  139.9954  160.8275  160.5370 C   0  0  0  0  0  0  0  0  0  0  0  0
  140.7725  161.6737  161.3191 O   0  0  0  0  0  0  0  0  0  0  0  0
  141.2797  162.8658  160.7986 C   0  0  0  0  0  0  0  0  0  0  0  0
  140.3575  159.5215  160.5317 C   0  0  0  0  0  0  0  0  0  0  0  0
  139.6188  158.6448  159.7709 C   0  0  0  0  0  0  0  0  0  0  0  0
  140.0914  157.2418  159.8230 C   0  0  0  0  0  0  0  0  0  0  0  0
  139.0654  156.2520  159.4908 C   0  0  0  0  0  0  0  0  0  0  0  0
  137.7871  156.9103  159.3581 N   0  0  0  0  0  0  0  0  0  0  0  0
  136.8042  155.9217  159.2000 C   0  0  0  0  0  0  0  0  0  0  0  0
  138.4890  159.0775  158.9956 C   0  0  0  0  0  0  0  0  0  0  0  0
  138.1354  160.4001  159.0159 C   0  0  0  0  0  0  0  0  0  0  0  0
  138.2664  164.9015  160.2505 C   0  0  0  0  0  0  0  0  0  0  0  0
  138.9681  164.8200  161.4828 O   0  0  0  0  0  0  0  0  0  0  0  0
  137.7583  166.1267  159.9560 C   0  0  0  0  0  0  0  0  0  0  0  0
  137.0798  166.2183  158.7724 C   0  0  0  0  0  0  0  0  0  0  0  0
  133.4392  165.8189  153.0818 C   0  0  0  0  0  0  0  0  0  0  0  0
  133.9525  164.8811  152.1940 C   0  0  0  0  0  0  0  0  0  0  0  0
  133.6973  164.9058  150.8559 O   0  0  0  0  0  0  0  0  0  0  0  0
  132.9245  165.9583  150.3177 C   0  0  0  0  0  0  0  0  0  0  0  0
  134.7460  163.9065  152.7459 C   0  0  0  0  0  0  0  0  0  0  0  0
  135.2485  162.9750  151.8023 O   0  0  0  0  0  0  0  0  0  0  0  0
  137.1986  161.0642  155.1549 C   0  0  0  0  0  0  0  0  0  0  0  0
  137.4732  159.8474  155.8127 C   0  0  0  0  0  0  0  0  0  0  0  0
  1  2  1  0
  2  3  1  0
  3  4  2  0
  4  5  1  0
  5  6  2  0
  6  7  1  0
  7  8  1  0
  8  9  2  0
  9 10  1  0
 10 11  1  0
 11 12  1  0
 12 13  1  0
 13 14  1  0
 13 15  1  0
 16 13  1  1
 16 17  1  0
 17 18  1  0
 18 19  2  0
 19 20  1  0
 20 21  1  0
 21 22  1  0
 22 23  2  0
 23 24  1  0
 24 25  1  0
 23 26  1  0
 26 27  2  0
 27 28  1  0
 28 29  1  0
 29 30  1  0
 30 31  1  0
 27 32  1  0
 32 33  2  0
 20 34  2  0
 34 35  1  0
 34 36  1  0
 36 37  2  0
 10 38  2  0
 38 39  1  0
 39 40  1  0
 40 41  1  0
 39 42  2  0
 42 43  1  0
  6 44  1  0
 44 45  2  0
  1 30  1  1
 32  1  1  0
 45  3  1  0
 42  8  1  0
 16  9  1  0
 37 18  1  0
 33 22  1  0
M  CHG  1  13   1
M  END
$$$$
