
     RDKit          3D

 36 40  0  0  0  0  0  0  0  0999 V2000
  160.7781  147.5614  127.3030 C   0  0  0  0  0  0  0  0  0  0  0  0
  161.7407  148.6445  127.8372 C   0  0  0  0  0  0  0  0  0  0  0  0
  161.5353  148.6624  129.3331 C   0  0  0  0  0  0  0  0  0  0  0  0
  161.4428  149.9378  127.1644 C   0  0  0  0  0  0  0  0  0  0  0  0
  162.3760  150.2604  126.0269 C   0  0  0  0  0  0  0  0  0  0  0  0
  163.8020  150.4268  126.5154 C   0  0  2  0  0  0  0  0  0  0  0  0
  164.7653  150.4722  125.3674 C   0  0  0  0  0  0  0  0  0  0  0  0
  165.4283  149.1558  125.0930 C   0  0  0  0  0  0  0  0  0  0  0  0
  166.0679  148.4685  126.2317 C   0  0  2  0  0  0  0  0  0  0  0  0
  165.8139  146.9598  126.0547 C   0  0  0  0  0  0  0  0  0  0  0  0
  165.5176  149.0179  127.4879 C   0  0  1  0  0  0  0  0  0  0  0  0
  164.0553  149.3342  127.5111 C   0  0  2  0  0  0  0  0  0  0  0  0
  163.1272  148.1890  127.4345 C   0  0  0  0  0  0  0  0  0  0  0  0
  166.0089  148.2326  128.6075 C   0  0  0  0  0  0  0  0  0  0  0  0
  165.3087  148.0213  129.6634 O   0  0  0  0  0  0  0  0  0  0  0  0
  167.3431  147.6836  128.4985 C   0  0  0  0  0  0  0  0  0  0  0  0
  168.1001  147.7955  127.4273 C   0  0  0  0  0  0  0  0  0  0  0  0
  169.4378  147.1514  127.5256 C   0  0  1  0  0  0  0  0  0  0  0  0
  170.4029  147.9924  128.3210 C   0  0  0  0  0  0  0  0  0  0  0  0
  169.3884  145.8555  128.2581 C   0  0  0  0  0  0  0  0  0  0  0  0
  170.3843  145.0138  128.2034 C   0  0  0  0  0  0  0  0  0  0  0  0
  170.3765  143.7718  128.8955 C   0  0  0  0  0  0  0  0  0  0  0  0
  170.3811  142.7252  129.4816 N   0  0  0  0  0  0  0  0  0  0  0  0
  171.5481  145.3870  127.3568 C   0  0  0  0  0  0  0  0  0  0  0  0
  172.6806  145.0798  127.7074 O   0  0  0  0  0  0  0  0  0  0  0  0
  171.2716  146.1271  126.0953 C   0  0  0  0  0  0  0  0  0  0  0  0
  171.2444  145.0564  124.9916 C   0  0  0  0  0  0  0  0  0  0  0  0
  172.3989  147.0457  125.7560 C   0  0  0  0  0  0  0  0  0  0  0  0
  169.9126  146.7903  126.1647 C   0  0  2  0  0  0  0  0  0  0  0  0
  169.6684  147.8082  125.0989 C   0  0  0  0  0  0  0  0  0  0  0  0
  168.1661  148.0023  125.0068 C   0  0  0  0  0  0  0  0  0  0  0  0
  167.5948  148.5737  126.2858 C   0  0  1  0  0  0  0  0  0  0  0  0
  168.0790  150.0123  126.3337 C   0  0  0  0  0  0  0  0  0  0  0  0
  163.8203  151.7995  127.1592 C   0  0  0  0  0  0  0  0  0  0  0  0
  164.2839  151.8587  128.4549 O   0  0  0  0  0  0  0  0  0  0  0  0
  163.4442  152.8030  126.5643 O   0  0  0  0  0  0  0  0  0  0  0  0
  1  2  1  0
  2  3  1  0
  2  4  1  0
  4  5  1  0
  5  6  1  0
  6  7  1  0
  7  8  1  0
  8  9  1  0
  9 10  1  6
  9 11  1  0
 11 12  1  0
 12 13  1  6
 11 14  1  1
 14 15  2  0
 14 16  1  0
 16 17  2  0
 17 18  1  0
 18 19  1  1
 18 20  1  0
 20 21  2  0
 21 22  1  0
 22 23  3  0
 21 24  1  0
 24 25  2  0
 24 26  1  0
 26 27  1  0
 26 28  1  0
 26 29  1  0
 29 30  1  6
 30 31  1  0
 31 32  1  0
 32 33  1  1
  6 34  1  1
 34 35  1  0
 34 36  2  0
 13  2  1  0
 32 17  1  0
 12  6  1  0
 29 18  1  0
 32  9  1  0
M  END
$$$$
