
     RDKit          3D

 36 40  0  0  0  0  0  0  0  0999 V2000
  164.8288  143.5587  130.0488 C   0  0  0  0  0  0  0  0  0  0  0  0
  163.6777  144.2979  129.3320 C   0  0  0  0  0  0  0  0  0  0  0  0
  162.6059  144.4844  130.3792 C   0  0  0  0  0  0  0  0  0  0  0  0
  163.2460  143.5016  128.1514 C   0  0  0  0  0  0  0  0  0  0  0  0
  163.8170  143.9909  126.8464 C   0  0  0  0  0  0  0  0  0  0  0  0
  163.3403  145.3951  126.5293 C   0  0  2  0  0  0  0  0  0  0  0  0
  164.1138  145.9843  125.3881 C   0  0  0  0  0  0  0  0  0  0  0  0
  165.2304  146.8840  125.8260 C   0  0  0  0  0  0  0  0  0  0  0  0
  164.9014  147.9536  126.7881 C   0  0  2  0  0  0  0  0  0  0  0  0
  166.0926  148.0783  127.7563 C   0  0  0  0  0  0  0  0  0  0  0  0
  163.6282  147.6158  127.4569 C   0  0  1  0  0  0  0  0  0  0  0  0
  163.4019  146.1785  127.8067 C   0  0  2  0  0  0  0  0  0  0  0  0
  164.2719  145.6051  128.8522 C   0  0  0  0  0  0  0  0  0  0  0  0
  163.3831  148.5691  128.5258 C   0  0  0  0  0  0  0  0  0  0  0  0
  162.7895  148.2454  129.6179 O   0  0  0  0  0  0  0  0  0  0  0  0
  163.8353  149.9280  128.3198 C   0  0  0  0  0  0  0  0  0  0  0  0
  164.5094  150.3273  127.2618 C   0  0  0  0  0  0  0  0  0  0  0  0
  164.8816  151.7679  127.2532 C   0  0  1  0  0  0  0  0  0  0  0  0
  163.7159  152.6411  126.8659 C   0  0  0  0  0  0  0  0  0  0  0  0
  165.2759  152.2576  128.6034 C   0  0  0  0  0  0  0  0  0  0  0  0
  165.8991  153.3948  128.7507 C   0  0  0  0  0  0  0  0  0  0  0  0
  166.2837  153.8984  130.0235 C   0  0  0  0  0  0  0  0  0  0  0  0
  166.5988  154.3299  131.0974 N   0  0  0  0  0  0  0  0  0  0  0  0
  166.2259  154.1590  127.5180 C   0  0  0  0  0  0  0  0  0  0  0  0
  166.1836  155.3830  127.5300 O   0  0  0  0  0  0  0  0  0  0  0  0
  166.6015  153.3809  126.3058 C   0  0  0  0  0  0  0  0  0  0  0  0
  168.1393  153.3617  126.2936 C   0  0  0  0  0  0  0  0  0  0  0  0
  166.1845  154.0942  125.0620 C   0  0  0  0  0  0  0  0  0  0  0  0
  166.0971  151.9583  126.4200 C   0  0  2  0  0  0  0  0  0  0  0  0
  166.1378  151.1855  125.1422 C   0  0  0  0  0  0  0  0  0  0  0  0
  166.0799  149.7146  125.5113 C   0  0  0  0  0  0  0  0  0  0  0  0
  164.7751  149.3571  126.1884 C   0  0  1  0  0  0  0  0  0  0  0  0
  163.7227  149.4322  125.0961 C   0  0  0  0  0  0  0  0  0  0  0  0
  161.9159  145.2075  126.0445 C   0  0  0  0  0  0  0  0  0  0  0  0
  161.7652  144.6081  124.8135 O   0  0  0  0  0  0  0  0  0  0  0  0
  160.9496  145.5678  126.7070 O   0  0  0  0  0  0  0  0  0  0  0  0
  1  2  1  0
  2  3  1  0
  2  4  1  0
  4  5  1  0
  5  6  1  0
  6  7  1  0
  7  8  1  0
  8  9  1  0
  9 10  1  1
  9 11  1  0
 11 12  1  0
 12 13  1  1
 11 14  1  1
 14 15  2  0
 14 16  1  0
 16 17  2  0
 17 18  1  0
 18 19  1  6
 18 20  1  0
 20 21  2  0
 21 22  1  0
 22 23  3  0
 21 24  1  0
 24 25  2  0
 24 26  1  0
 26 27  1  0
 26 28  1  0
 26 29  1  0
 29 30  1  6
 30 31  1  0
 31 32  1  0
 32 33  1  6
  6 34  1  6
 34 35  1  0
 34 36  2  0
 13  2  1  0
 32 17  1  0
 12  6  1  0
 29 18  1  0
 32  9  1  0
M  END
$$$$
