
     RDKit          3D

 36 40  0  0  0  0  0  0  0  0999 V2000
  183.5850  164.6050  142.8048 C   0  0  0  0  0  0  0  0  0  0  0  0
  184.5234  163.3974  142.5897 C   0  0  0  0  0  0  0  0  0  0  0  0
  183.7784  162.2059  143.1425 C   0  0  0  0  0  0  0  0  0  0  0  0
  185.8262  163.6661  143.2566 C   0  0  0  0  0  0  0  0  0  0  0  0
  186.9036  164.1407  142.3171 C   0  0  0  0  0  0  0  0  0  0  0  0
  187.2378  163.0824  141.2837 C   0  0  2  0  0  0  0  0  0  0  0  0
  188.0982  163.6447  140.1922 C   0  0  0  0  0  0  0  0  0  0  0  0
  187.3274  164.0373  138.9677 C   0  0  0  0  0  0  0  0  0  0  0  0
  186.4131  163.0324  138.3911 C   0  0  2  0  0  0  0  0  0  0  0  0
  185.1641  163.7841  137.8944 C   0  0  0  0  0  0  0  0  0  0  0  0
  186.1201  162.0119  139.4184 C   0  0  1  0  0  0  0  0  0  0  0  0
  185.9381  162.4918  140.8239 C   0  0  2  0  0  0  0  0  0  0  0  0
  184.7444  163.3169  141.0941 C   0  0  0  0  0  0  0  0  0  0  0  0
  185.0891  161.1168  138.9211 C   0  0  0  0  0  0  0  0  0  0  0  0
  184.2117  160.5787  139.6895 O   0  0  0  0  0  0  0  0  0  0  0  0
  185.0795  160.8392  137.5011 C   0  0  0  0  0  0  0  0  0  0  0  0
  185.8982  161.3996  136.6358 C   0  0  0  0  0  0  0  0  0  0  0  0
  185.7134  160.9760  135.2214 C   0  0  1  0  0  0  0  0  0  0  0  0
  186.3290  159.6253  134.9607 C   0  0  0  0  0  0  0  0  0  0  0  0
  184.2775  160.8008  134.8671 C   0  0  0  0  0  0  0  0  0  0  0  0
  183.8981  160.7132  133.6214 C   0  0  0  0  0  0  0  0  0  0  0  0
  182.5382  160.5374  133.2453 C   0  0  0  0  0  0  0  0  0  0  0  0
  181.3880  160.3896  132.9390 N   0  0  0  0  0  0  0  0  0  0  0  0
  184.9503  160.8289  132.5774 C   0  0  0  0  0  0  0  0  0  0  0  0
  184.8673  160.1647  131.5517 O   0  0  0  0  0  0  0  0  0  0  0  0
  186.0738  161.7708  132.8348 C   0  0  0  0  0  0  0  0  0  0  0  0
  185.6898  163.0718  132.1100 C   0  0  0  0  0  0  0  0  0  0  0  0
  187.3323  161.2912  132.1898 C   0  0  0  0  0  0  0  0  0  0  0  0
  186.1897  162.0545  134.3172 C   0  0  2  0  0  0  0  0  0  0  0  0
  187.4626  162.7255  134.7186 C   0  0  0  0  0  0  0  0  0  0  0  0
  187.2208  163.3600  136.0758 C   0  0  0  0  0  0  0  0  0  0  0  0
  186.9293  162.3216  137.1366 C   0  0  1  0  0  0  0  0  0  0  0  0
  188.2487  161.6075  137.3721 C   0  0  0  0  0  0  0  0  0  0  0  0
  188.0854  162.0762  142.0374 C   0  0  0  0  0  0  0  0  0  0  0  0
  187.5972  160.7895  142.0948 O   0  0  0  0  0  0  0  0  0  0  0  0
  189.1461  162.3858  142.5681 O   0  0  0  0  0  0  0  0  0  0  0  0
  1  2  1  0
  2  3  1  0
  2  4  1  0
  4  5  1  0
  5  6  1  0
  6  7  1  0
  7  8  1  0
  8  9  1  0
  9 10  1  6
  9 11  1  0
 11 12  1  0
 12 13  1  6
 11 14  1  6
 14 15  2  0
 14 16  1  0
 16 17  2  0
 17 18  1  0
 18 19  1  1
 18 20  1  0
 20 21  2  0
 21 22  1  0
 22 23  3  0
 21 24  1  0
 24 25  2  0
 24 26  1  0
 26 27  1  0
 26 28  1  0
 26 29  1  0
 29 30  1  1
 30 31  1  0
 31 32  1  0
 32 33  1  1
  6 34  1  1
 34 35  1  0
 34 36  2  0
 13  2  1  0
 32 17  1  0
 12  6  1  0
 29 18  1  0
 32  9  1  0
M  END
$$$$
