
     RDKit          3D

 36 40  0  0  0  0  0  0  0  0999 V2000
  124.9412  153.7949  150.8870 C   0  0  0  0  0  0  0  0  0  0  0  0
  124.0402  153.9104  149.6380 C   0  0  0  0  0  0  0  0  0  0  0  0
  122.6244  153.8060  150.1525 C   0  0  0  0  0  0  0  0  0  0  0  0
  124.4161  152.8494  148.6647 C   0  0  0  0  0  0  0  0  0  0  0  0
  125.3093  153.3333  147.5527 C   0  0  0  0  0  0  0  0  0  0  0  0
  124.6114  154.3754  146.7002 C   0  0  2  0  0  0  0  0  0  0  0  0
  125.5774  155.0531  145.7754 C   0  0  0  0  0  0  0  0  0  0  0  0
  126.0699  156.3724  146.2899 C   0  0  0  0  0  0  0  0  0  0  0  0
  125.0554  157.3506  146.7281 C   0  0  2  0  0  0  0  0  0  0  0  0
  125.6215  158.0710  147.9661 C   0  0  0  0  0  0  0  0  0  0  0  0
  123.7880  156.6369  146.9868 C   0  0  1  0  0  0  0  0  0  0  0  0
  123.8827  155.2925  147.6369 C   0  0  2  0  0  0  0  0  0  0  0  0
  124.3539  155.2634  149.0354 C   0  0  0  0  0  0  0  0  0  0  0  0
  122.8351  157.5578  147.5827 C   0  0  0  0  0  0  0  0  0  0  0  0
  121.9627  157.1850  148.4487 O   0  0  0  0  0  0  0  0  0  0  0  0
  122.8956  158.9406  147.1613 C   0  0  0  0  0  0  0  0  0  0  0  0
  123.7990  159.4185  146.3315 C   0  0  0  0  0  0  0  0  0  0  0  0
  123.6826  160.8721  146.0354 C   0  0  1  0  0  0  0  0  0  0  0  0
  122.5884  161.1503  145.0372 C   0  0  0  0  0  0  0  0  0  0  0  0
  123.2959  161.6640  147.2360 C   0  0  0  0  0  0  0  0  0  0  0  0
  123.4192  162.9632  147.2530 C   0  0  0  0  0  0  0  0  0  0  0  0
  123.0529  163.7529  148.3772 C   0  0  0  0  0  0  0  0  0  0  0  0
  122.7542  164.4171  149.3303 N   0  0  0  0  0  0  0  0  0  0  0  0
  123.9901  163.6107  146.0425 C   0  0  0  0  0  0  0  0  0  0  0  0
  123.5773  164.7070  145.6853 O   0  0  0  0  0  0  0  0  0  0  0  0
  125.0622  162.8801  145.3127 C   0  0  0  0  0  0  0  0  0  0  0  0
  126.3844  163.4671  145.8348 C   0  0  0  0  0  0  0  0  0  0  0  0
  125.0191  163.1865  143.8518 C   0  0  0  0  0  0  0  0  0  0  0  0
  125.0155  161.4057  145.6526 C   0  0  2  0  0  0  0  0  0  0  0  0
  125.8283  160.5386  144.7477 C   0  0  0  0  0  0  0  0  0  0  0  0
  126.0686  159.2327  145.4825 C   0  0  0  0  0  0  0  0  0  0  0  0
  124.7767  158.4899  145.7434 C   0  0  1  0  0  0  0  0  0  0  0  0
  124.3212  157.9880  144.3844 C   0  0  0  0  0  0  0  0  0  0  0  0
  123.6601  153.5746  145.8326 C   0  0  0  0  0  0  0  0  0  0  0  0
  124.2232  152.9038  144.7694 O   0  0  0  0  0  0  0  0  0  0  0  0
  122.4567  153.5244  146.0600 O   0  0  0  0  0  0  0  0  0  0  0  0
  1  2  1  0
  2  3  1  0
  2  4  1  0
  4  5  1  0
  5  6  1  0
  6  7  1  0
  7  8  1  0
  8  9  1  0
  9 10  1  1
  9 11  1  0
 11 12  1  0
 12 13  1  1
 11 14  1  1
 14 15  2  0
 14 16  1  0
 16 17  2  0
 17 18  1  0
 18 19  1  6
 18 20  1  0
 20 21  2  0
 21 22  1  0
 22 23  3  0
 21 24  1  0
 24 25  2  0
 24 26  1  0
 26 27  1  0
 26 28  1  0
 26 29  1  0
 29 30  1  6
 30 31  1  0
 31 32  1  0
 32 33  1  6
  6 34  1  6
 34 35  1  0
 34 36  2  0
 13  2  1  0
 32 17  1  0
 12  6  1  0
 29 18  1  0
 32  9  1  0
M  END
$$$$
