
     RDKit          3D

 36 40  0  0  0  0  0  0  0  0999 V2000
  181.0216  156.9344  135.2328 C   0  0  0  0  0  0  0  0  0  0  0  0
  180.5381  158.2151  135.9477 C   0  0  0  0  0  0  0  0  0  0  0  0
  179.5940  157.7410  137.0267 C   0  0  0  0  0  0  0  0  0  0  0  0
  179.9163  159.1267  134.9496 C   0  0  0  0  0  0  0  0  0  0  0  0
  180.8285  160.2310  134.4837 C   0  0  0  0  0  0  0  0  0  0  0  0
  181.2070  161.1516  135.6278 C   0  0  2  0  0  0  0  0  0  0  0  0
  182.3199  162.0755  135.2333 C   0  0  0  0  0  0  0  0  0  0  0  0
  183.6716  161.6064  135.6813 C   0  0  0  0  0  0  0  0  0  0  0  0
  183.8266  161.2453  137.1039 C   0  0  2  0  0  0  0  0  0  0  0  0
  184.7632  160.0242  137.1649 C   0  0  0  0  0  0  0  0  0  0  0  0
  182.4890  160.9943  137.6787 C   0  0  1  0  0  0  0  0  0  0  0  0
  181.4979  160.2809  136.8139 C   0  0  2  0  0  0  0  0  0  0  0  0
  181.7878  158.8685  136.4984 C   0  0  0  0  0  0  0  0  0  0  0  0
  182.6393  160.4711  139.0260 C   0  0  0  0  0  0  0  0  0  0  0  0
  181.8235  159.6168  139.5305 O   0  0  0  0  0  0  0  0  0  0  0  0
  183.7600  160.9530  139.8040 C   0  0  0  0  0  0  0  0  0  0  0  0
  184.6784  161.7748  139.3413 C   0  0  0  0  0  0  0  0  0  0  0  0
  185.7481  162.1403  140.3089 C   0  0  1  0  0  0  0  0  0  0  0  0
  185.2783  163.1840  141.2892 C   0  0  0  0  0  0  0  0  0  0  0  0
  186.1548  160.9897  141.1627 C   0  0  0  0  0  0  0  0  0  0  0  0
  187.2554  161.0281  141.8630 C   0  0  0  0  0  0  0  0  0  0  0  0
  187.6717  159.9531  142.6954 C   0  0  0  0  0  0  0  0  0  0  0  0
  188.0131  159.0472  143.4036 N   0  0  0  0  0  0  0  0  0  0  0  0
  188.0969  162.2482  141.7464 C   0  0  0  0  0  0  0  0  0  0  0  0
  188.7017  162.6678  142.7252 O   0  0  0  0  0  0  0  0  0  0  0  0
  188.1676  162.9100  140.4149 C   0  0  0  0  0  0  0  0  0  0  0  0
  189.4520  162.3740  139.7605 C   0  0  0  0  0  0  0  0  0  0  0  0
  188.3584  164.3840  140.5597 C   0  0  0  0  0  0  0  0  0  0  0  0
  186.9819  162.5050  139.5655 C   0  0  2  0  0  0  0  0  0  0  0  0
  186.7827  163.3436  138.3454 C   0  0  0  0  0  0  0  0  0  0  0  0
  185.9129  162.5428  137.3939 C   0  0  0  0  0  0  0  0  0  0  0  0
  184.5373  162.2890  137.9703 C   0  0  1  0  0  0  0  0  0  0  0  0
  183.8389  163.6374  137.9498 C   0  0  0  0  0  0  0  0  0  0  0  0
  179.9764  162.0113  135.8406 C   0  0  0  0  0  0  0  0  0  0  0  0
  180.1372  163.1167  136.6466 O   0  0  0  0  0  0  0  0  0  0  0  0
  178.8967  161.7416  135.3269 O   0  0  0  0  0  0  0  0  0  0  0  0
  1  2  1  0
  2  3  1  0
  2  4  1  0
  4  5  1  0
  5  6  1  0
  6  7  1  0
  7  8  1  0
  8  9  1  0
  9 10  1  6
  9 11  1  0
 11 12  1  0
 12 13  1  6
 11 14  1  1
 14 15  2  0
 14 16  1  0
 16 17  2  0
 17 18  1  0
 18 19  1  1
 18 20  1  0
 20 21  2  0
 21 22  1  0
 22 23  3  0
 21 24  1  0
 24 25  2  0
 24 26  1  0
 26 27  1  0
 26 28  1  0
 26 29  1  0
 29 30  1  6
 30 31  1  0
 31 32  1  0
 32 33  1  1
  6 34  1  1
 34 35  1  0
 34 36  2  0
 13  2  1  0
 32 17  1  0
 12  6  1  0
 29 18  1  0
 32  9  1  0
M  END
$$$$
