
     RDKit          3D

 36 40  0  0  0  0  0  0  0  0999 V2000
  131.9206  141.7428  125.6706 C   0  0  0  0  0  0  0  0  0  0  0  0
  132.7700  141.6290  126.9555 C   0  0  0  0  0  0  0  0  0  0  0  0
  133.1985  143.0401  127.2803 C   0  0  0  0  0  0  0  0  0  0  0  0
  133.8975  140.6886  126.7140 C   0  0  0  0  0  0  0  0  0  0  0  0
  133.6570  139.3011  127.2483 C   0  0  0  0  0  0  0  0  0  0  0  0
  133.5106  139.3104  128.7577 C   0  0  2  0  0  0  0  0  0  0  0  0
  133.0017  137.9926  129.2601 C   0  0  0  0  0  0  0  0  0  0  0  0
  131.5233  137.9801  129.5092 C   0  0  0  0  0  0  0  0  0  0  0  0
  130.9677  139.0616  130.3456 C   0  0  2  0  0  0  0  0  0  0  0  0
  129.6012  139.4446  129.7471 C   0  0  0  0  0  0  0  0  0  0  0  0
  131.9330  140.1794  130.3796 C   0  0  1  0  0  0  0  0  0  0  0  0
  132.6580  140.4933  129.1088 C   0  0  2  0  0  0  0  0  0  0  0  0
  131.8487  141.0339  127.9991 C   0  0  0  0  0  0  0  0  0  0  0  0
  131.3252  141.3143  131.0535 C   0  0  0  0  0  0  0  0  0  0  0  0
  131.5818  142.5300  130.7278 O   0  0  0  0  0  0  0  0  0  0  0  0
  130.4016  141.0301  132.1304 C   0  0  0  0  0  0  0  0  0  0  0  0
  130.0327  139.8166  132.4829 C   0  0  0  0  0  0  0  0  0  0  0  0
  129.0686  139.7501  133.6144 C   0  0  1  0  0  0  0  0  0  0  0  0
  129.7543  139.9497  134.9415 C   0  0  0  0  0  0  0  0  0  0  0  0
  128.0539  140.8389  133.5567 C   0  0  0  0  0  0  0  0  0  0  0  0
  126.9703  140.7872  134.2823 C   0  0  0  0  0  0  0  0  0  0  0  0
  125.9839  141.8110  134.2600 C   0  0  0  0  0  0  0  0  0  0  0  0
  125.1531  142.6757  134.2298 N   0  0  0  0  0  0  0  0  0  0  0  0
  126.7779  139.5865  135.1378 C   0  0  0  0  0  0  0  0  0  0  0  0
  126.2454  139.6985  136.2349 O   0  0  0  0  0  0  0  0  0  0  0  0
  127.2479  138.2791  134.6035 C   0  0  0  0  0  0  0  0  0  0  0  0
  126.0033  137.6195  133.9859 C   0  0  0  0  0  0  0  0  0  0  0  0
  127.6911  137.3779  135.7086 C   0  0  0  0  0  0  0  0  0  0  0  0
  128.2752  138.4979  133.5135 C   0  0  2  0  0  0  0  0  0  0  0  0
  129.0393  137.2723  133.1318 C   0  0  0  0  0  0  0  0  0  0  0  0
  129.6355  137.5305  131.7603 C   0  0  0  0  0  0  0  0  0  0  0  0
  130.6328  138.6678  131.7872 C   0  0  1  0  0  0  0  0  0  0  0  0
  131.8367  138.1277  132.5389 C   0  0  0  0  0  0  0  0  0  0  0  0
  134.9294  139.4585  129.2715 C   0  0  0  0  0  0  0  0  0  0  0  0
  135.8996  138.7537  128.5938 O   0  0  0  0  0  0  0  0  0  0  0  0
  135.2027  140.1642  130.2357 O   0  0  0  0  0  0  0  0  0  0  0  0
  1  2  1  0
  2  3  1  0
  2  4  1  0
  4  5  1  0
  5  6  1  0
  6  7  1  0
  7  8  1  0
  8  9  1  0
  9 10  1  6
  9 11  1  0
 11 12  1  0
 12 13  1  6
 11 14  1  6
 14 15  2  0
 14 16  1  0
 16 17  2  0
 17 18  1  0
 18 19  1  1
 18 20  1  0
 20 21  2  0
 21 22  1  0
 22 23  3  0
 21 24  1  0
 24 25  2  0
 24 26  1  0
 26 27  1  0
 26 28  1  0
 26 29  1  0
 29 30  1  1
 30 31  1  0
 31 32  1  0
 32 33  1  1
  6 34  1  1
 34 35  1  0
 34 36  2  0
 13  2  1  0
 32 17  1  0
 12  6  1  0
 29 18  1  0
 32  9  1  0
M  END
$$$$
