
     RDKit          3D

 36 40  0  0  0  0  0  0  0  0999 V2000
  146.2148  164.6441  125.7718 C   0  0  0  0  0  0  0  0  0  0  0  0
  147.4666  164.6270  126.6761 C   0  0  0  0  0  0  0  0  0  0  0  0
  148.6195  164.9967  125.7737 C   0  0  0  0  0  0  0  0  0  0  0  0
  147.5928  163.2870  127.3103 C   0  0  0  0  0  0  0  0  0  0  0  0
  147.0808  163.2336  128.7258 C   0  0  0  0  0  0  0  0  0  0  0  0
  147.8845  164.1418  129.6363 C   0  0  2  0  0  0  0  0  0  0  0  0
  147.2147  164.3029  130.9680 C   0  0  0  0  0  0  0  0  0  0  0  0
  146.4048  165.5595  131.0799 C   0  0  0  0  0  0  0  0  0  0  0  0
  147.0672  166.8275  130.7173 C   0  0  2  0  0  0  0  0  0  0  0  0
  146.0195  167.7010  130.0022 C   0  0  0  0  0  0  0  0  0  0  0  0
  148.2510  166.5245  129.8871 C   0  0  1  0  0  0  0  0  0  0  0  0
  148.1178  165.4197  128.8867 C   0  0  2  0  0  0  0  0  0  0  0  0
  147.2026  165.6575  127.7533 C   0  0  0  0  0  0  0  0  0  0  0  0
  148.8096  167.7669  129.3813 C   0  0  0  0  0  0  0  0  0  0  0  0
  149.3721  167.8533  128.2297 O   0  0  0  0  0  0  0  0  0  0  0  0
  148.7148  168.9327  130.2329 C   0  0  0  0  0  0  0  0  0  0  0  0
  148.0970  168.9470  131.3954 C   0  0  0  0  0  0  0  0  0  0  0  0
  148.1140  170.2537  132.1069 C   0  0  1  0  0  0  0  0  0  0  0  0
  149.4377  170.5010  132.7838 C   0  0  0  0  0  0  0  0  0  0  0  0
  147.9554  171.4058  131.1764 C   0  0  0  0  0  0  0  0  0  0  0  0
  147.6624  172.5962  131.6239 C   0  0  0  0  0  0  0  0  0  0  0  0
  147.5114  173.7210  130.7673 C   0  0  0  0  0  0  0  0  0  0  0  0
  147.3729  174.6674  130.0436 N   0  0  0  0  0  0  0  0  0  0  0  0
  147.4622  172.7445  133.0897 C   0  0  0  0  0  0  0  0  0  0  0  0
  147.8233  173.7698  133.6539 O   0  0  0  0  0  0  0  0  0  0  0  0
  146.8138  171.6164  133.8127 C   0  0  0  0  0  0  0  0  0  0  0  0
  145.3272  171.9975  133.9142 C   0  0  0  0  0  0  0  0  0  0  0  0
  147.3157  171.5215  135.2159 C   0  0  0  0  0  0  0  0  0  0  0  0
  146.9360  170.3399  133.0083 C   0  0  2  0  0  0  0  0  0  0  0  0
  146.6068  169.0976  133.7698 C   0  0  0  0  0  0  0  0  0  0  0  0
  146.3040  168.0177  132.7474 C   0  0  0  0  0  0  0  0  0  0  0  0
  147.5138  167.6937  131.8987 C   0  0  1  0  0  0  0  0  0  0  0  0
  148.4713  166.9663  132.8262 C   0  0  0  0  0  0  0  0  0  0  0  0
  149.1735  163.3820  129.8815 C   0  0  0  0  0  0  0  0  0  0  0  0
  150.3407  164.0985  129.7345 O   0  0  0  0  0  0  0  0  0  0  0  0
  149.1816  162.1964  130.1927 O   0  0  0  0  0  0  0  0  0  0  0  0
  1  2  1  0
  2  3  1  0
  2  4  1  0
  4  5  1  0
  5  6  1  0
  6  7  1  0
  7  8  1  0
  8  9  1  0
  9 10  1  6
  9 11  1  0
 11 12  1  0
 12 13  1  6
 11 14  1  6
 14 15  2  0
 14 16  1  0
 16 17  2  0
 17 18  1  0
 18 19  1  1
 18 20  1  0
 20 21  2  0
 21 22  1  0
 22 23  3  0
 21 24  1  0
 24 25  2  0
 24 26  1  0
 26 27  1  0
 26 28  1  0
 26 29  1  0
 29 30  1  1
 30 31  1  0
 31 32  1  0
 32 33  1  1
  6 34  1  1
 34 35  1  0
 34 36  2  0
 13  2  1  0
 32 17  1  0
 12  6  1  0
 29 18  1  0
 32  9  1  0
M  END
$$$$
