
     RDKit          3D

 36 40  0  0  0  0  0  0  0  0999 V2000
  148.9723  168.4787  137.7203 C   0  0  0  0  0  0  0  0  0  0  0  0
  148.0434  169.3317  136.8288 C   0  0  0  0  0  0  0  0  0  0  0  0
  148.6171  170.7279  136.8704 C   0  0  0  0  0  0  0  0  0  0  0  0
  146.6488  169.2292  137.3374 C   0  0  0  0  0  0  0  0  0  0  0  0
  145.7939  168.2514  136.5747 C   0  0  0  0  0  0  0  0  0  0  0  0
  145.6215  168.6810  135.1305 C   0  0  2  0  0  0  0  0  0  0  0  0
  145.0123  167.5847  134.3090 C   0  0  0  0  0  0  0  0  0  0  0  0
  146.0209  166.7847  133.5405 C   0  0  0  0  0  0  0  0  0  0  0  0
  146.9864  167.5298  132.7094 C   0  0  2  0  0  0  0  0  0  0  0  0
  148.3382  166.7995  132.8154 C   0  0  0  0  0  0  0  0  0  0  0  0
  147.0326  168.9308  133.1758 C   0  0  1  0  0  0  0  0  0  0  0  0
  146.9597  169.1608  134.6526 C   0  0  2  0  0  0  0  0  0  0  0  0
  148.1122  168.7031  135.4532 C   0  0  0  0  0  0  0  0  0  0  0  0
  148.1018  169.6293  132.4827 C   0  0  0  0  0  0  0  0  0  0  0  0
  148.7910  170.5612  133.0363 O   0  0  0  0  0  0  0  0  0  0  0  0
  148.3739  169.2381  131.1165 C   0  0  0  0  0  0  0  0  0  0  0  0
  147.7619  168.2504  130.4977 C   0  0  0  0  0  0  0  0  0  0  0  0
  148.1983  168.0131  129.0951 C   0  0  1  0  0  0  0  0  0  0  0  0
  147.5888  169.0129  128.1464 C   0  0  0  0  0  0  0  0  0  0  0  0
  149.6671  168.1901  128.9229 C   0  0  0  0  0  0  0  0  0  0  0  0
  150.2758  167.7558  127.8533 C   0  0  0  0  0  0  0  0  0  0  0  0
  151.6742  167.9140  127.6502 C   0  0  0  0  0  0  0  0  0  0  0  0
  152.8555  168.0466  127.4902 N   0  0  0  0  0  0  0  0  0  0  0  0
  149.4508  167.0517  126.8364 C   0  0  0  0  0  0  0  0  0  0  0  0
  149.7024  167.1888  125.6457 O   0  0  0  0  0  0  0  0  0  0  0  0
  148.3391  166.1925  127.3280 C   0  0  0  0  0  0  0  0  0  0  0  0
  148.9100  164.7647  127.3587 C   0  0  0  0  0  0  0  0  0  0  0  0
  147.2099  166.1680  126.3512 C   0  0  0  0  0  0  0  0  0  0  0  0
  147.9511  166.5928  128.7353 C   0  0  2  0  0  0  0  0  0  0  0  0
  146.6539  166.0190  129.2038 C   0  0  0  0  0  0  0  0  0  0  0  0
  146.6554  166.0980  130.7193 C   0  0  0  0  0  0  0  0  0  0  0  0
  146.6929  167.5298  131.2064 C   0  0  1  0  0  0  0  0  0  0  0  0
  145.3242  168.1007  130.8793 C   0  0  0  0  0  0  0  0  0  0  0  0
  144.6030  169.8025  135.1916 C   0  0  0  0  0  0  0  0  0  0  0  0
  144.9472  170.9738  134.5537 O   0  0  0  0  0  0  0  0  0  0  0  0
  143.5322  169.6788  135.7752 O   0  0  0  0  0  0  0  0  0  0  0  0
  1  2  1  0
  2  3  1  0
  2  4  1  0
  4  5  1  0
  5  6  1  0
  6  7  1  0
  7  8  1  0
  8  9  1  0
  9 10  1  6
  9 11  1  0
 11 12  1  0
 12 13  1  1
 11 14  1  1
 14 15  2  0
 14 16  1  0
 16 17  2  0
 17 18  1  0
 18 19  1  6
 18 20  1  0
 20 21  2  0
 21 22  1  0
 22 23  3  0
 21 24  1  0
 24 25  2  0
 24 26  1  0
 26 27  1  0
 26 28  1  0
 26 29  1  0
 29 30  1  6
 30 31  1  0
 31 32  1  0
 32 33  1  1
  6 34  1  1
 34 35  1  0
 34 36  2  0
 13  2  1  0
 32 17  1  0
 12  6  1  0
 29 18  1  0
 32  9  1  0
M  END
$$$$
