
     RDKit          3D

 36 40  0  0  0  0  0  0  0  0999 V2000
  131.3414  141.0017  136.2980 C   0  0  0  0  0  0  0  0  0  0  0  0
  130.2265  140.9359  135.2313 C   0  0  0  0  0  0  0  0  0  0  0  0
  129.5830  142.3019  135.2375 C   0  0  0  0  0  0  0  0  0  0  0  0
  129.2977  139.8219  135.5635 C   0  0  0  0  0  0  0  0  0  0  0  0
  129.5515  138.5634  134.7759 C   0  0  0  0  0  0  0  0  0  0  0  0
  129.3304  138.7885  133.2926 C   0  0  2  0  0  0  0  0  0  0  0  0
  129.8432  137.6324  132.4875 C   0  0  0  0  0  0  0  0  0  0  0  0
  131.2114  137.8619  131.9190 C   0  0  0  0  0  0  0  0  0  0  0  0
  131.4308  139.1104  131.1631 C   0  0  2  0  0  0  0  0  0  0  0  0
  132.8512  139.6025  131.4978 C   0  0  0  0  0  0  0  0  0  0  0  0
  130.3706  140.0750  131.5213 C   0  0  1  0  0  0  0  0  0  0  0  0
  129.9414  140.1158  132.9542 C   0  0  2  0  0  0  0  0  0  0  0  0
  130.9297  140.6175  133.9290 C   0  0  0  0  0  0  0  0  0  0  0  0
  130.6734  141.3621  130.9187 C   0  0  0  0  0  0  0  0  0  0  0  0
  130.3726  142.4766  131.4819 O   0  0  0  0  0  0  0  0  0  0  0  0
  131.3373  141.3535  129.6332 C   0  0  0  0  0  0  0  0  0  0  0  0
  131.7398  140.2604  129.0197 C   0  0  0  0  0  0  0  0  0  0  0  0
  132.4063  140.4783  127.7073 C   0  0  1  0  0  0  0  0  0  0  0  0
  131.4054  140.7487  126.6135 C   0  0  0  0  0  0  0  0  0  0  0  0
  133.2818  141.6832  127.7114 C   0  0  0  0  0  0  0  0  0  0  0  0
  134.1593  141.8800  126.7656 C   0  0  0  0  0  0  0  0  0  0  0  0
  135.0060  143.0218  126.7317 C   0  0  0  0  0  0  0  0  0  0  0  0
  135.7113  143.9916  126.7057 N   0  0  0  0  0  0  0  0  0  0  0  0
  134.2696  140.8397  125.7092 C   0  0  0  0  0  0  0  0  0  0  0  0
  134.5086  141.1670  124.5535 O   0  0  0  0  0  0  0  0  0  0  0  0
  134.0851  139.4208  126.1196 C   0  0  0  0  0  0  0  0  0  0  0  0
  135.5049  138.8700  126.3341 C   0  0  0  0  0  0  0  0  0  0  0  0
  133.4900  138.6165  125.0111 C   0  0  0  0  0  0  0  0  0  0  0  0
  133.3311  139.3488  127.4302 C   0  0  2  0  0  0  0  0  0  0  0  0
  132.8174  137.9883  127.7718 C   0  0  0  0  0  0  0  0  0  0  0  0
  132.5426  137.9796  129.2643 C   0  0  0  0  0  0  0  0  0  0  0  0
  131.4512  138.9579  129.6394 C   0  0  1  0  0  0  0  0  0  0  0  0
  130.1678  138.3544  129.0964 C   0  0  0  0  0  0  0  0  0  0  0  0
  127.8223  138.7992  133.1353 C   0  0  0  0  0  0  0  0  0  0  0  0
  127.1752  139.9446  133.5435 O   0  0  0  0  0  0  0  0  0  0  0  0
  127.2090  137.8443  132.6721 O   0  0  0  0  0  0  0  0  0  0  0  0
  1  2  1  0
  2  3  1  0
  2  4  1  0
  4  5  1  0
  5  6  1  0
  6  7  1  0
  7  8  1  0
  8  9  1  0
  9 10  1  1
  9 11  1  0
 11 12  1  0
 12 13  1  1
 11 14  1  1
 14 15  2  0
 14 16  1  0
 16 17  2  0
 17 18  1  0
 18 19  1  6
 18 20  1  0
 20 21  2  0
 21 22  1  0
 22 23  3  0
 21 24  1  0
 24 25  2  0
 24 26  1  0
 26 27  1  0
 26 28  1  0
 26 29  1  0
 29 30  1  6
 30 31  1  0
 31 32  1  0
 32 33  1  6
  6 34  1  1
 34 35  1  0
 34 36  2  0
 13  2  1  0
 32 17  1  0
 12  6  1  0
 29 18  1  0
 32  9  1  0
M  END
$$$$
