
     RDKit          3D

 36 40  0  0  0  0  0  0  0  0999 V2000
  120.1049  151.4733  156.7668 C   0  0  0  0  0  0  0  0  0  0  0  0
  119.8883  150.1738  155.9608 C   0  0  0  0  0  0  0  0  0  0  0  0
  121.0600  149.2863  156.3066 C   0  0  0  0  0  0  0  0  0  0  0  0
  119.7811  150.5079  154.5148 C   0  0  0  0  0  0  0  0  0  0  0  0
  118.3640  150.5661  154.0077 C   0  0  0  0  0  0  0  0  0  0  0  0
  117.6842  149.2150  154.1180 C   0  0  2  0  0  0  0  0  0  0  0  0
  116.2088  149.3305  153.8778 C   0  0  0  0  0  0  0  0  0  0  0  0
  115.4028  149.4008  155.1400 C   0  0  0  0  0  0  0  0  0  0  0  0
  115.6452  148.3599  156.1579 C   0  0  2  0  0  0  0  0  0  0  0  0
  115.5483  149.0392  157.5367 C   0  0  0  0  0  0  0  0  0  0  0  0
  116.9588  147.7366  155.8963 C   0  0  1  0  0  0  0  0  0  0  0  0
  118.0653  148.6394  155.4495 C   0  0  2  0  0  0  0  0  0  0  0  0
  118.5627  149.6180  156.4362 C   0  0  0  0  0  0  0  0  0  0  0  0
  117.2849  146.8352  156.9884 C   0  0  0  0  0  0  0  0  0  0  0  0
  118.4897  146.6452  157.3913 O   0  0  0  0  0  0  0  0  0  0  0  0
  116.1878  146.1379  157.6238 C   0  0  0  0  0  0  0  0  0  0  0  0
  114.9211  146.3249  157.3182 C   0  0  0  0  0  0  0  0  0  0  0  0
  113.9529  145.5077  158.0986 C   0  0  1  0  0  0  0  0  0  0  0  0
  113.8872  144.0897  157.5925 C   0  0  0  0  0  0  0  0  0  0  0  0
  114.3516  145.3708  159.5271 C   0  0  0  0  0  0  0  0  0  0  0  0
  113.5052  144.9423  160.4233 C   0  0  0  0  0  0  0  0  0  0  0  0
  113.8519  144.7908  161.7939 C   0  0  0  0  0  0  0  0  0  0  0  0
  114.1389  144.6728  162.9526 N   0  0  0  0  0  0  0  0  0  0  0  0
  112.1253  144.6310  159.9657 C   0  0  0  0  0  0  0  0  0  0  0  0
  111.5134  143.6955  160.4661 O   0  0  0  0  0  0  0  0  0  0  0  0
  111.5423  145.4942  158.9025 C   0  0  0  0  0  0  0  0  0  0  0  0
  110.6951  146.5409  159.6456 C   0  0  0  0  0  0  0  0  0  0  0  0
  110.5928  144.7217  158.0471 C   0  0  0  0  0  0  0  0  0  0  0  0
  112.6423  146.2063  158.1446 C   0  0  2  0  0  0  0  0  0  0  0  0
  112.1989  146.8428  156.8680 C   0  0  0  0  0  0  0  0  0  0  0  0
  113.2426  147.8830  156.5050 C   0  0  0  0  0  0  0  0  0  0  0  0
  114.5893  147.2527  156.2259 C   0  0  1  0  0  0  0  0  0  0  0  0
  114.4242  146.5222  154.9048 C   0  0  0  0  0  0  0  0  0  0  0  0
  118.2558  148.4121  152.9659 C   0  0  0  0  0  0  0  0  0  0  0  0
  118.2668  149.0333  151.7365 O   0  0  0  0  0  0  0  0  0  0  0  0
  118.6845  147.2735  153.1149 O   0  0  0  0  0  0  0  0  0  0  0  0
  1  2  1  0
  2  3  1  0
  2  4  1  0
  4  5  1  0
  5  6  1  0
  6  7  1  0
  7  8  1  0
  8  9  1  0
  9 10  1  1
  9 11  1  0
 11 12  1  0
 12 13  1  1
 11 14  1  1
 14 15  2  0
 14 16  1  0
 16 17  2  0
 17 18  1  0
 18 19  1  6
 18 20  1  0
 20 21  2  0
 21 22  1  0
 22 23  3  0
 21 24  1  0
 24 25  2  0
 24 26  1  0
 26 27  1  0
 26 28  1  0
 26 29  1  0
 29 30  1  6
 30 31  1  0
 31 32  1  0
 32 33  1  6
  6 34  1  6
 34 35  1  0
 34 36  2  0
 13  2  1  0
 32 17  1  0
 12  6  1  0
 29 18  1  0
 32  9  1  0
M  END
$$$$
