
     RDKit          3D

 36 40  0  0  0  0  0  0  0  0999 V2000
  181.2191  164.0098  142.2595 C   0  0  0  0  0  0  0  0  0  0  0  0
  182.5327  163.2593  142.5703 C   0  0  0  0  0  0  0  0  0  0  0  0
  182.1093  161.9343  143.1579 C   0  0  0  0  0  0  0  0  0  0  0  0
  183.3675  164.0913  143.4785 C   0  0  0  0  0  0  0  0  0  0  0  0
  184.4577  164.8546  142.7732 C   0  0  0  0  0  0  0  0  0  0  0  0
  185.4556  163.9152  142.1240 C   0  0  2  0  0  0  0  0  0  0  0  0
  186.3743  164.6565  141.1997 C   0  0  0  0  0  0  0  0  0  0  0  0
  185.9605  164.5810  139.7606 C   0  0  0  0  0  0  0  0  0  0  0  0
  185.6926  163.2416  139.2017 C   0  0  2  0  0  0  0  0  0  0  0  0
  184.4962  163.3790  138.2417 C   0  0  0  0  0  0  0  0  0  0  0  0
  185.4525  162.3014  140.3157 C   0  0  1  0  0  0  0  0  0  0  0  0
  184.6671  162.8125  141.4823 C   0  0  2  0  0  0  0  0  0  0  0  0
  183.2435  163.1185  141.2410 C   0  0  0  0  0  0  0  0  0  0  0  0
  185.0181  161.0239  139.7764 C   0  0  0  0  0  0  0  0  0  0  0  0
  184.1817  160.2644  140.3875 O   0  0  0  0  0  0  0  0  0  0  0  0
  185.5696  160.6195  138.5014 C   0  0  0  0  0  0  0  0  0  0  0  0
  186.3783  161.3660  137.7790 C   0  0  0  0  0  0  0  0  0  0  0  0
  186.8246  160.7594  136.4956 C   0  0  1  0  0  0  0  0  0  0  0  0
  187.9187  159.7455  136.7106 C   0  0  0  0  0  0  0  0  0  0  0  0
  185.7381  159.9923  135.8254 C   0  0  0  0  0  0  0  0  0  0  0  0
  185.8417  159.6323  134.5752 C   0  0  0  0  0  0  0  0  0  0  0  0
  184.8295  158.8926  133.9045 C   0  0  0  0  0  0  0  0  0  0  0  0
  183.9710  158.2783  133.3349 N   0  0  0  0  0  0  0  0  0  0  0  0
  187.0682  160.0475  133.8445 C   0  0  0  0  0  0  0  0  0  0  0  0
  187.5601  159.3025  133.0061 O   0  0  0  0  0  0  0  0  0  0  0  0
  187.6461  161.3795  134.1723 C   0  0  0  0  0  0  0  0  0  0  0  0
  187.0949  162.3378  133.1031 C   0  0  0  0  0  0  0  0  0  0  0  0
  189.1297  161.3754  134.0021 C   0  0  0  0  0  0  0  0  0  0  0  0
  187.1656  161.8382  135.5324 C   0  0  2  0  0  0  0  0  0  0  0  0
  187.9217  162.9975  136.0945 C   0  0  0  0  0  0  0  0  0  0  0  0
  187.0460  163.6209  137.1658 C   0  0  0  0  0  0  0  0  0  0  0  0
  186.8024  162.6684  138.3157 C   0  0  1  0  0  0  0  0  0  0  0  0
  188.1331  162.5660  139.0404 C   0  0  0  0  0  0  0  0  0  0  0  0
  186.3031  163.4130  143.2766 C   0  0  0  0  0  0  0  0  0  0  0  0
  187.1463  164.3332  143.8592 O   0  0  0  0  0  0  0  0  0  0  0  0
  186.2451  162.2539  143.6710 O   0  0  0  0  0  0  0  0  0  0  0  0
  1  2  1  0
  2  3  1  0
  2  4  1  0
  4  5  1  0
  5  6  1  0
  6  7  1  0
  7  8  1  0
  8  9  1  0
  9 10  1  6
  9 11  1  0
 11 12  1  0
 12 13  1  6
 11 14  1  6
 14 15  2  0
 14 16  1  0
 16 17  2  0
 17 18  1  0
 18 19  1  1
 18 20  1  0
 20 21  2  0
 21 22  1  0
 22 23  3  0
 21 24  1  0
 24 25  2  0
 24 26  1  0
 26 27  1  0
 26 28  1  0
 26 29  1  0
 29 30  1  1
 30 31  1  0
 31 32  1  0
 32 33  1  1
  6 34  1  1
 34 35  1  0
 34 36  2  0
 13  2  1  0
 32 17  1  0
 12  6  1  0
 29 18  1  0
 32  9  1  0
M  END
$$$$
