
     RDKit          3D

 36 40  0  0  0  0  0  0  0  0999 V2000
  177.8202  168.3248  107.5545 C   0  0  0  0  0  0  0  0  0  0  0  0
  176.6065  168.7057  108.4304 C   0  0  0  0  0  0  0  0  0  0  0  0
  175.6718  169.4605  107.5157 C   0  0  0  0  0  0  0  0  0  0  0  0
  177.0779  169.4897  109.6039 C   0  0  0  0  0  0  0  0  0  0  0  0
  177.2063  168.6774  110.8658 C   0  0  0  0  0  0  0  0  0  0  0  0
  175.8618  168.1345  111.3100 C   0  0  2  0  0  0  0  0  0  0  0  0
  176.0230  167.1104  112.3931 C   0  0  0  0  0  0  0  0  0  0  0  0
  175.9861  165.6988  111.8894 C   0  0  0  0  0  0  0  0  0  0  0  0
  174.8497  165.3155  111.0291 C   0  0  2  0  0  0  0  0  0  0  0  0
  175.3968  164.3651  109.9477 C   0  0  0  0  0  0  0  0  0  0  0  0
  174.2332  166.5417  110.4824 C   0  0  1  0  0  0  0  0  0  0  0  0
  175.1566  167.6479  110.0790 C   0  0  2  0  0  0  0  0  0  0  0  0
  176.0292  167.3931  108.9162 C   0  0  0  0  0  0  0  0  0  0  0  0
  173.2273  166.1729  109.5008 C   0  0  0  0  0  0  0  0  0  0  0  0
  172.9809  166.8871  108.4620 O   0  0  0  0  0  0  0  0  0  0  0  0
  172.4904  164.9495  109.7328 C   0  0  0  0  0  0  0  0  0  0  0  0
  172.7256  164.1269  110.7334 C   0  0  0  0  0  0  0  0  0  0  0  0
  171.8537  162.9222  110.7827 C   0  0  1  0  0  0  0  0  0  0  0  0
  170.4912  163.2444  111.3405 C   0  0  0  0  0  0  0  0  0  0  0  0
  171.5756  162.3702  109.4276 C   0  0  0  0  0  0  0  0  0  0  0  0
  171.0776  161.1731  109.2783 C   0  0  0  0  0  0  0  0  0  0  0  0
  170.7914  160.6161  108.0017 C   0  0  0  0  0  0  0  0  0  0  0  0
  170.5432  160.1384  106.9299 N   0  0  0  0  0  0  0  0  0  0  0  0
  170.8330  160.3769  110.5098 C   0  0  0  0  0  0  0  0  0  0  0  0
  169.8642  159.6301  110.5707 O   0  0  0  0  0  0  0  0  0  0  0  0
  171.8023  160.5268  111.6294 C   0  0  0  0  0  0  0  0  0  0  0  0
  172.7871  159.3555  111.4762 C   0  0  0  0  0  0  0  0  0  0  0  0
  171.1295  160.3348  112.9487 C   0  0  0  0  0  0  0  0  0  0  0  0
  172.5654  161.8267  111.4905 C   0  0  2  0  0  0  0  0  0  0  0  0
  173.3270  162.2278  112.7114 C   0  0  0  0  0  0  0  0  0  0  0  0
  174.3802  163.2269  112.2691 C   0  0  0  0  0  0  0  0  0  0  0  0
  173.7580  164.4902  111.7164 C   0  0  1  0  0  0  0  0  0  0  0  0
  173.1587  165.2007  112.9173 C   0  0  0  0  0  0  0  0  0  0  0  0
  175.1627  169.3270  111.9329 C   0  0  0  0  0  0  0  0  0  0  0  0
  175.8135  169.9342  112.9842 O   0  0  0  0  0  0  0  0  0  0  0  0
  174.0789  169.7314  111.5277 O   0  0  0  0  0  0  0  0  0  0  0  0
  1  2  1  0
  2  3  1  0
  2  4  1  0
  4  5  1  0
  5  6  1  0
  6  7  1  0
  7  8  1  0
  8  9  1  0
  9 10  1  6
  9 11  1  0
 11 12  1  0
 12 13  1  6
 11 14  1  6
 14 15  2  0
 14 16  1  0
 16 17  2  0
 17 18  1  0
 18 19  1  1
 18 20  1  0
 20 21  2  0
 21 22  1  0
 22 23  3  0
 21 24  1  0
 24 25  2  0
 24 26  1  0
 26 27  1  0
 26 28  1  0
 26 29  1  0
 29 30  1  1
 30 31  1  0
 31 32  1  0
 32 33  1  1
  6 34  1  1
 34 35  1  0
 34 36  2  0
 13  2  1  0
 32 17  1  0
 12  6  1  0
 29 18  1  0
 32  9  1  0
M  END
$$$$
