
     RDKit          3D

 36 40  0  0  0  0  0  0  0  0999 V2000
  183.6353  182.8461  128.8117 C   0  0  0  0  0  0  0  0  0  0  0  0
  183.6681  181.7488  127.7254 C   0  0  0  0  0  0  0  0  0  0  0  0
  183.5663  182.4826  126.4096 C   0  0  0  0  0  0  0  0  0  0  0  0
  182.5637  180.7829  127.9731 C   0  0  0  0  0  0  0  0  0  0  0  0
  183.0034  179.5224  128.6705 C   0  0  0  0  0  0  0  0  0  0  0  0
  183.9861  178.7384  127.8223 C   0  0  2  0  0  0  0  0  0  0  0  0
  184.6306  177.6415  128.6156 C   0  0  0  0  0  0  0  0  0  0  0  0
  185.9839  178.0065  129.1478 C   0  0  0  0  0  0  0  0  0  0  0  0
  186.9660  178.5484  128.1887 C   0  0  2  0  0  0  0  0  0  0  0  0
  187.7611  179.6453  128.9210 C   0  0  0  0  0  0  0  0  0  0  0  0
  186.2448  179.0369  126.9954 C   0  0  1  0  0  0  0  0  0  0  0  0
  184.9388  179.7305  127.2243 C   0  0  2  0  0  0  0  0  0  0  0  0
  184.9924  181.0380  127.9071 C   0  0  0  0  0  0  0  0  0  0  0  0
  187.1792  179.7277  126.1230 C   0  0  0  0  0  0  0  0  0  0  0  0
  186.8377  180.7367  125.4052 O   0  0  0  0  0  0  0  0  0  0  0  0
  188.5385  179.2336  126.0819 C   0  0  0  0  0  0  0  0  0  0  0  0
  188.9874  178.2502  126.8332 C   0  0  0  0  0  0  0  0  0  0  0  0
  190.4208  177.9038  126.6350 C   0  0  1  0  0  0  0  0  0  0  0  0
  190.6262  177.0760  125.3925 C   0  0  0  0  0  0  0  0  0  0  0  0
  191.2686  179.1091  126.4188 C   0  0  0  0  0  0  0  0  0  0  0  0
  192.5688  179.0419  126.5098 C   0  0  0  0  0  0  0  0  0  0  0  0
  193.4106  180.1687  126.3019 C   0  0  0  0  0  0  0  0  0  0  0  0
  194.1232  181.1154  126.1160 N   0  0  0  0  0  0  0  0  0  0  0  0
  193.1609  177.7264  126.8694 C   0  0  0  0  0  0  0  0  0  0  0  0
  194.2292  177.3838  126.3782 O   0  0  0  0  0  0  0  0  0  0  0  0
  192.4115  176.8755  127.8338 C   0  0  0  0  0  0  0  0  0  0  0  0
  193.0488  177.1549  129.2054 C   0  0  0  0  0  0  0  0  0  0  0  0
  192.6389  175.4258  127.5570 C   0  0  0  0  0  0  0  0  0  0  0  0
  190.9568  177.2915  127.8783 C   0  0  2  0  0  0  0  0  0  0  0  0
  190.0572  176.3152  128.5630 C   0  0  0  0  0  0  0  0  0  0  0  0
  188.7967  177.0677  128.9478 C   0  0  0  0  0  0  0  0  0  0  0  0
  188.0461  177.5637  127.7315 C   0  0  1  0  0  0  0  0  0  0  0  0
  187.4646  176.3192  127.0840 C   0  0  0  0  0  0  0  0  0  0  0  0
  183.1236  178.0708  126.7690 C   0  0  0  0  0  0  0  0  0  0  0  0
  182.0535  177.3378  127.2326 O   0  0  0  0  0  0  0  0  0  0  0  0
  183.3616  178.1742  125.5711 O   0  0  0  0  0  0  0  0  0  0  0  0
  1  2  1  0
  2  3  1  0
  2  4  1  0
  4  5  1  0
  5  6  1  0
  6  7  1  0
  7  8  1  0
  8  9  1  0
  9 10  1  1
  9 11  1  0
 11 12  1  0
 12 13  1  1
 11 14  1  1
 14 15  2  0
 14 16  1  0
 16 17  2  0
 17 18  1  0
 18 19  1  6
 18 20  1  0
 20 21  2  0
 21 22  1  0
 22 23  3  0
 21 24  1  0
 24 25  2  0
 24 26  1  0
 26 27  1  0
 26 28  1  0
 26 29  1  0
 29 30  1  6
 30 31  1  0
 31 32  1  0
 32 33  1  6
  6 34  1  6
 34 35  1  0
 34 36  2  0
 13  2  1  0
 32 17  1  0
 12  6  1  0
 29 18  1  0
 32  9  1  0
M  END
$$$$
