
     RDKit          3D

 36 40  0  0  0  0  0  0  0  0999 V2000
  161.6283  149.0474  128.1838 C   0  0  0  0  0  0  0  0  0  0  0  0
  162.8705  149.6766  128.8519 C   0  0  0  0  0  0  0  0  0  0  0  0
  162.9211  149.0880  130.2415 C   0  0  0  0  0  0  0  0  0  0  0  0
  162.7438  151.1588  128.8207 C   0  0  0  0  0  0  0  0  0  0  0  0
  163.5247  151.8125  127.7109 C   0  0  0  0  0  0  0  0  0  0  0  0
  165.0143  151.5802  127.8755 C   0  0  2  0  0  0  0  0  0  0  0  0
  165.7645  151.9855  126.6423 C   0  0  0  0  0  0  0  0  0  0  0  0
  166.0833  150.8364  125.7336 C   0  0  0  0  0  0  0  0  0  0  0  0
  166.7424  149.6602  126.3338 C   0  0  2  0  0  0  0  0  0  0  0  0
  166.1529  148.4105  125.6535 C   0  0  0  0  0  0  0  0  0  0  0  0
  166.5326  149.6926  127.7958 C   0  0  1  0  0  0  0  0  0  0  0  0
  165.1928  150.1478  128.2825 C   0  0  2  0  0  0  0  0  0  0  0  0
  164.0459  149.2657  127.9907 C   0  0  0  0  0  0  0  0  0  0  0  0
  167.0251  148.4548  128.3760 C   0  0  0  0  0  0  0  0  0  0  0  0
  166.4787  147.9067  129.4011 O   0  0  0  0  0  0  0  0  0  0  0  0
  168.1786  147.8426  127.7531 C   0  0  0  0  0  0  0  0  0  0  0  0
  168.7565  148.3009  126.6626 C   0  0  0  0  0  0  0  0  0  0  0  0
  169.9274  147.5154  126.1870 C   0  0  1  0  0  0  0  0  0  0  0  0
  171.1640  147.8169  126.9940 C   0  0  0  0  0  0  0  0  0  0  0  0
  169.7284  146.0486  126.3521 C   0  0  0  0  0  0  0  0  0  0  0  0
  170.5034  145.1923  125.7442 C   0  0  0  0  0  0  0  0  0  0  0  0
  170.3492  143.7858  125.8843 C   0  0  0  0  0  0  0  0  0  0  0  0
  170.2306  142.5980  126.0015 N   0  0  0  0  0  0  0  0  0  0  0  0
  171.5649  145.7405  124.8593 C   0  0  0  0  0  0  0  0  0  0  0  0
  172.6498  145.1768  124.7870 O   0  0  0  0  0  0  0  0  0  0  0  0
  171.2467  146.9710  124.0845 C   0  0  0  0  0  0  0  0  0  0  0  0
  170.8157  146.4772  122.6932 C   0  0  0  0  0  0  0  0  0  0  0  0
  172.4702  147.8000  123.8711 C   0  0  0  0  0  0  0  0  0  0  0  0
  170.0867  147.7056  124.7220 C   0  0  2  0  0  0  0  0  0  0  0  0
  169.8898  149.0992  124.2215 C   0  0  0  0  0  0  0  0  0  0  0  0
  168.4671  149.4980  124.5675 C   0  0  0  0  0  0  0  0  0  0  0  0
  168.2453  149.5433  126.0634 C   0  0  1  0  0  0  0  0  0  0  0  0
  169.0210  150.7558  126.5473 C   0  0  0  0  0  0  0  0  0  0  0  0
  165.4246  152.5401  128.9751 C   0  0  0  0  0  0  0  0  0  0  0  0
  164.8885  153.8072  128.9094 O   0  0  0  0  0  0  0  0  0  0  0  0
  166.1907  152.2118  129.8739 O   0  0  0  0  0  0  0  0  0  0  0  0
  1  2  1  0
  2  3  1  0
  2  4  1  0
  4  5  1  0
  5  6  1  0
  6  7  1  0
  7  8  1  0
  8  9  1  0
  9 10  1  6
  9 11  1  0
 11 12  1  0
 12 13  1  6
 11 14  1  6
 14 15  2  0
 14 16  1  0
 16 17  2  0
 17 18  1  0
 18 19  1  1
 18 20  1  0
 20 21  2  0
 21 22  1  0
 22 23  3  0
 21 24  1  0
 24 25  2  0
 24 26  1  0
 26 27  1  0
 26 28  1  0
 26 29  1  0
 29 30  1  1
 30 31  1  0
 31 32  1  0
 32 33  1  1
  6 34  1  1
 34 35  1  0
 34 36  2  0
 13  2  1  0
 32 17  1  0
 12  6  1  0
 29 18  1  0
 32  9  1  0
M  END
$$$$
