
     RDKit          3D

 36 40  0  0  0  0  0  0  0  0999 V2000
  175.7997  162.3911  114.9057 C   0  0  0  0  0  0  0  0  0  0  0  0
  174.8135  163.4901  114.4530 C   0  0  0  0  0  0  0  0  0  0  0  0
  175.3499  164.7760  115.0351 C   0  0  0  0  0  0  0  0  0  0  0  0
  173.4433  163.1364  114.9128 C   0  0  0  0  0  0  0  0  0  0  0  0
  172.5863  162.5098  113.8444 C   0  0  0  0  0  0  0  0  0  0  0  0
  172.3458  163.4720  112.6972 C   0  0  2  0  0  0  0  0  0  0  0  0
  171.7353  162.7702  111.5213 C   0  0  0  0  0  0  0  0  0  0  0  0
  172.7346  162.3847  110.4722 C   0  0  0  0  0  0  0  0  0  0  0  0
  173.6460  163.4381  109.9846 C   0  0  2  0  0  0  0  0  0  0  0  0
  175.0205  162.7819  109.7560 C   0  0  0  0  0  0  0  0  0  0  0  0
  173.6720  164.5377  110.9709 C   0  0  1  0  0  0  0  0  0  0  0  0
  173.6506  164.1568  112.4178 C   0  0  2  0  0  0  0  0  0  0  0  0
  174.8457  163.4653  112.9396 C   0  0  0  0  0  0  0  0  0  0  0  0
  174.6936  165.4976  110.5884 C   0  0  0  0  0  0  0  0  0  0  0  0
  175.3781  166.1588  111.4510 O   0  0  0  0  0  0  0  0  0  0  0  0
  174.9227  165.6949  109.1734 C   0  0  0  0  0  0  0  0  0  0  0  0
  174.3142  165.0117  108.2268 C   0  0  0  0  0  0  0  0  0  0  0  0
  174.7018  165.3712  106.8359 C   0  0  1  0  0  0  0  0  0  0  0  0
  174.0284  166.6405  106.3815 C   0  0  0  0  0  0  0  0  0  0  0  0
  176.1573  165.6619  106.7123 C   0  0  0  0  0  0  0  0  0  0  0  0
  176.7354  165.7153  105.5434 C   0  0  0  0  0  0  0  0  0  0  0  0
  178.1199  165.9982  105.3857 C   0  0  0  0  0  0  0  0  0  0  0  0
  179.2903  166.2283  105.2599 N   0  0  0  0  0  0  0  0  0  0  0  0
  175.8908  165.4419  104.3508 C   0  0  0  0  0  0  0  0  0  0  0  0
  176.0918  166.0525  103.3083 O   0  0  0  0  0  0  0  0  0  0  0  0
  174.8233  164.4133  104.4853 C   0  0  0  0  0  0  0  0  0  0  0  0
  175.4339  163.1162  103.9285 C   0  0  0  0  0  0  0  0  0  0  0  0
  173.6578  164.7343  103.6087 C   0  0  0  0  0  0  0  0  0  0  0  0
  174.4798  164.2033  105.9445 C   0  0  2  0  0  0  0  0  0  0  0  0
  173.2182  163.4379  106.1767 C   0  0  0  0  0  0  0  0  0  0  0  0
  173.2768  162.9061  107.5969 C   0  0  0  0  0  0  0  0  0  0  0  0
  173.2940  164.0253  108.6147 C   0  0  1  0  0  0  0  0  0  0  0  0
  171.8984  164.6228  108.5773 C   0  0  0  0  0  0  0  0  0  0  0  0
  171.3000  164.4336  113.2268 C   0  0  0  0  0  0  0  0  0  0  0  0
  170.1819  163.8650  113.7959 O   0  0  0  0  0  0  0  0  0  0  0  0
  171.4371  165.6495  113.1544 O   0  0  0  0  0  0  0  0  0  0  0  0
  1  2  1  0
  2  3  1  0
  2  4  1  0
  4  5  1  0
  5  6  1  0
  6  7  1  0
  7  8  1  0
  8  9  1  0
  9 10  1  6
  9 11  1  0
 11 12  1  0
 12 13  1  6
 11 14  1  1
 14 15  2  0
 14 16  1  0
 16 17  2  0
 17 18  1  0
 18 19  1  6
 18 20  1  0
 20 21  2  0
 21 22  1  0
 22 23  3  0
 21 24  1  0
 24 25  2  0
 24 26  1  0
 26 27  1  0
 26 28  1  0
 26 29  1  0
 29 30  1  6
 30 31  1  0
 31 32  1  0
 32 33  1  1
  6 34  1  1
 34 35  1  0
 34 36  2  0
 13  2  1  0
 32 17  1  0
 12  6  1  0
 29 18  1  0
 32  9  1  0
M  END
$$$$
