
     RDKit          3D

 36 40  0  0  0  0  0  0  0  0999 V2000
  172.6276  159.2092  115.1624 C   0  0  0  0  0  0  0  0  0  0  0  0
  173.7582  159.5923  114.1824 C   0  0  0  0  0  0  0  0  0  0  0  0
  173.8823  158.4230  113.2351 C   0  0  0  0  0  0  0  0  0  0  0  0
  174.9954  159.8865  114.9549 C   0  0  0  0  0  0  0  0  0  0  0  0
  175.2456  161.3568  115.1652 C   0  0  0  0  0  0  0  0  0  0  0  0
  175.4642  162.0720  113.8460 C   0  0  2  0  0  0  0  0  0  0  0  0
  175.4376  163.5602  114.0264 C   0  0  0  0  0  0  0  0  0  0  0  0
  174.1128  164.1776  113.6926 C   0  0  0  0  0  0  0  0  0  0  0  0
  173.5178  163.8401  112.3848 C   0  0  2  0  0  0  0  0  0  0  0  0
  171.9973  163.7135  112.5946 C   0  0  0  0  0  0  0  0  0  0  0  0
  174.1504  162.6042  111.8800 C   0  0  1  0  0  0  0  0  0  0  0  0
  174.4500  161.5333  112.8813 C   0  0  2  0  0  0  0  0  0  0  0  0
  173.2913  160.8609  113.5007 C   0  0  0  0  0  0  0  0  0  0  0  0
  173.4546  162.1674  110.6814 C   0  0  0  0  0  0  0  0  0  0  0  0
  173.3122  160.9274  110.3782 O   0  0  0  0  0  0  0  0  0  0  0  0
  172.9151  163.1936  109.8158 C   0  0  0  0  0  0  0  0  0  0  0  0
  172.9580  164.4815  110.0854 C   0  0  0  0  0  0  0  0  0  0  0  0
  172.3388  165.3651  109.0607 C   0  0  1  0  0  0  0  0  0  0  0  0
  173.2469  165.5620  107.8742 C   0  0  0  0  0  0  0  0  0  0  0  0
  171.0991  164.7765  108.4819 C   0  0  0  0  0  0  0  0  0  0  0  0
  170.2676  165.5066  107.7900 C   0  0  0  0  0  0  0  0  0  0  0  0
  169.0792  164.9781  107.2154 C   0  0  0  0  0  0  0  0  0  0  0  0
  168.0811  164.5340  106.7202 N   0  0  0  0  0  0  0  0  0  0  0  0
  170.5922  166.9491  107.6341 C   0  0  0  0  0  0  0  0  0  0  0  0
  170.3249  167.5246  106.5866 O   0  0  0  0  0  0  0  0  0  0  0  0
  171.2353  167.6377  108.7866 C   0  0  0  0  0  0  0  0  0  0  0  0
  170.0868  168.3265  109.5428 C   0  0  0  0  0  0  0  0  0  0  0  0
  172.1402  168.7299  108.3199 C   0  0  0  0  0  0  0  0  0  0  0  0
  171.8854  166.6250  109.7048 C   0  0  2  0  0  0  0  0  0  0  0  0
  172.8200  167.2150  110.7098 C   0  0  0  0  0  0  0  0  0  0  0  0
  172.9889  166.1886  111.8148 C   0  0  0  0  0  0  0  0  0  0  0  0
  173.6449  164.9227  111.3091 C   0  0  1  0  0  0  0  0  0  0  0  0
  175.0889  165.3026  111.0316 C   0  0  0  0  0  0  0  0  0  0  0  0
  176.8802  161.7026  113.4490 C   0  0  0  0  0  0  0  0  0  0  0  0
  177.0827  161.4069  112.1190 O   0  0  0  0  0  0  0  0  0  0  0  0
  177.7965  161.6671  114.2623 O   0  0  0  0  0  0  0  0  0  0  0  0
  1  2  1  0
  2  3  1  0
  2  4  1  0
  4  5  1  0
  5  6  1  0
  6  7  1  0
  7  8  1  0
  8  9  1  0
  9 10  1  1
  9 11  1  0
 11 12  1  0
 12 13  1  1
 11 14  1  6
 14 15  2  0
 14 16  1  0
 16 17  2  0
 17 18  1  0
 18 19  1  6
 18 20  1  0
 20 21  2  0
 21 22  1  0
 22 23  3  0
 21 24  1  0
 24 25  2  0
 24 26  1  0
 26 27  1  0
 26 28  1  0
 26 29  1  0
 29 30  1  6
 30 31  1  0
 31 32  1  0
 32 33  1  6
  6 34  1  6
 34 35  1  0
 34 36  2  0
 13  2  1  0
 32 17  1  0
 12  6  1  0
 29 18  1  0
 32  9  1  0
M  END
$$$$
