
     RDKit          3D

 36 40  0  0  0  0  0  0  0  0999 V2000
  149.9557  166.5230  124.9695 C   0  0  0  0  0  0  0  0  0  0  0  0
  150.3592  165.8770  126.3130 C   0  0  0  0  0  0  0  0  0  0  0  0
  151.8392  166.1397  126.4569 C   0  0  0  0  0  0  0  0  0  0  0  0
  149.9944  164.4346  126.2905 C   0  0  0  0  0  0  0  0  0  0  0  0
  148.7051  164.1225  127.0040 C   0  0  0  0  0  0  0  0  0  0  0  0
  148.8014  164.4483  128.4820 C   0  0  2  0  0  0  0  0  0  0  0  0
  147.4526  164.4020  129.1351 C   0  0  0  0  0  0  0  0  0  0  0  0
  146.8138  165.7506  129.2802 C   0  0  0  0  0  0  0  0  0  0  0  0
  147.6172  166.8172  129.9088 C   0  0  2  0  0  0  0  0  0  0  0  0
  147.2947  168.1280  129.1674 C   0  0  0  0  0  0  0  0  0  0  0  0
  149.0434  166.4372  129.8458 C   0  0  1  0  0  0  0  0  0  0  0  0
  149.5150  165.7625  128.5962 C   0  0  2  0  0  0  0  0  0  0  0  0
  149.5274  166.5779  127.3660 C   0  0  0  0  0  0  0  0  0  0  0  0
  149.8549  167.5527  130.3027 C   0  0  0  0  0  0  0  0  0  0  0  0
  151.0191  167.8031  129.8213 O   0  0  0  0  0  0  0  0  0  0  0  0
  149.3026  168.3932  131.3428 C   0  0  0  0  0  0  0  0  0  0  0  0
  148.0934  168.2475  131.8426 C   0  0  0  0  0  0  0  0  0  0  0  0
  147.7228  169.2245  132.9020 C   0  0  1  0  0  0  0  0  0  0  0  0
  148.3377  168.8646  134.2300 C   0  0  0  0  0  0  0  0  0  0  0  0
  148.2395  170.5917  132.6154 C   0  0  0  0  0  0  0  0  0  0  0  0
  147.7883  171.6306  133.2637 C   0  0  0  0  0  0  0  0  0  0  0  0
  148.2632  172.9491  133.0235 C   0  0  0  0  0  0  0  0  0  0  0  0
  148.6566  174.0623  132.8120 N   0  0  0  0  0  0  0  0  0  0  0  0
  146.7194  171.3961  134.2702 C   0  0  0  0  0  0  0  0  0  0  0  0
  146.6950  172.0592  135.2995 O   0  0  0  0  0  0  0  0  0  0  0  0
  145.7073  170.3476  133.9668 C   0  0  0  0  0  0  0  0  0  0  0  0
  144.5073  171.1001  133.3674 C   0  0  0  0  0  0  0  0  0  0  0  0
  145.2113  169.7045  135.2199 C   0  0  0  0  0  0  0  0  0  0  0  0
  146.2459  169.3846  132.9305 C   0  0  2  0  0  0  0  0  0  0  0  0
  145.4521  168.1274  132.7861 C   0  0  0  0  0  0  0  0  0  0  0  0
  145.8069  167.5313  131.4363 C   0  0  0  0  0  0  0  0  0  0  0  0
  147.2639  167.1301  131.3657 C   0  0  1  0  0  0  0  0  0  0  0  0
  147.3900  165.9167  132.2701 C   0  0  0  0  0  0  0  0  0  0  0  0
  149.6119  163.3076  129.0658 C   0  0  0  0  0  0  0  0  0  0  0  0
  150.9813  163.4507  129.0270 O   0  0  0  0  0  0  0  0  0  0  0  0
  149.0828  162.3115  129.5458 O   0  0  0  0  0  0  0  0  0  0  0  0
  1  2  1  0
  2  3  1  0
  2  4  1  0
  4  5  1  0
  5  6  1  0
  6  7  1  0
  7  8  1  0
  8  9  1  0
  9 10  1  6
  9 11  1  0
 11 12  1  0
 12 13  1  6
 11 14  1  6
 14 15  2  0
 14 16  1  0
 16 17  2  0
 17 18  1  0
 18 19  1  1
 18 20  1  0
 20 21  2  0
 21 22  1  0
 22 23  3  0
 21 24  1  0
 24 25  2  0
 24 26  1  0
 26 27  1  0
 26 28  1  0
 26 29  1  0
 29 30  1  1
 30 31  1  0
 31 32  1  0
 32 33  1  1
  6 34  1  1
 34 35  1  0
 34 36  2  0
 13  2  1  0
 32 17  1  0
 12  6  1  0
 29 18  1  0
 32  9  1  0
M  END
$$$$
