
     RDKit          3D

 36 40  0  0  0  0  0  0  0  0999 V2000
  162.9610  142.5733  127.2931 C   0  0  0  0  0  0  0  0  0  0  0  0
  162.0480  143.8004  127.5077 C   0  0  0  0  0  0  0  0  0  0  0  0
  161.5982  143.7198  128.9470 C   0  0  0  0  0  0  0  0  0  0  0  0
  160.9377  143.7624  126.5179 C   0  0  0  0  0  0  0  0  0  0  0  0
  161.1562  144.6553  125.3248 C   0  0  0  0  0  0  0  0  0  0  0  0
  161.2258  146.1137  125.7343 C   0  0  2  0  0  0  0  0  0  0  0  0
  161.7135  146.9702  124.6046 C   0  0  0  0  0  0  0  0  0  0  0  0
  163.1774  147.2843  124.6834 C   0  0  0  0  0  0  0  0  0  0  0  0
  163.6859  147.8307  125.9566 C   0  0  2  0  0  0  0  0  0  0  0  0
  165.0795  147.2185  126.1913 C   0  0  0  0  0  0  0  0  0  0  0  0
  162.7159  147.5218  127.0271 C   0  0  1  0  0  0  0  0  0  0  0  0
  162.0549  146.1801  126.9823 C   0  0  2  0  0  0  0  0  0  0  0  0
  162.9174  145.0070  127.2248 C   0  0  0  0  0  0  0  0  0  0  0  0
  163.2844  147.9001  128.3097 C   0  0  0  0  0  0  0  0  0  0  0  0
  163.0400  147.2528  129.3919 O   0  0  0  0  0  0  0  0  0  0  0  0
  164.1533  149.0568  128.3354 C   0  0  0  0  0  0  0  0  0  0  0  0
  164.5085  149.7348  127.2643 C   0  0  0  0  0  0  0  0  0  0  0  0
  165.4142  150.8884  127.5151 C   0  0  1  0  0  0  0  0  0  0  0  0
  164.6614  152.0812  128.0460 C   0  0  0  0  0  0  0  0  0  0  0  0
  166.4264  150.5937  128.5672 C   0  0  0  0  0  0  0  0  0  0  0  0
  167.4720  151.3581  128.7273 C   0  0  0  0  0  0  0  0  0  0  0  0
  168.4544  151.1133  129.7256 C   0  0  0  0  0  0  0  0  0  0  0  0
  169.2849  150.9180  130.5687 N   0  0  0  0  0  0  0  0  0  0  0  0
  167.6254  152.5087  127.7982 C   0  0  0  0  0  0  0  0  0  0  0  0
  168.1011  153.5615  128.2047 O   0  0  0  0  0  0  0  0  0  0  0  0
  167.1881  152.3171  126.3883 C   0  0  0  0  0  0  0  0  0  0  0  0
  168.4648  151.9561  125.6106 C   0  0  0  0  0  0  0  0  0  0  0  0
  166.6928  153.5985  125.8031 C   0  0  0  0  0  0  0  0  0  0  0  0
  166.2164  151.1601  126.2943 C   0  0  2  0  0  0  0  0  0  0  0  0
  165.4773  151.0797  124.9987 C   0  0  0  0  0  0  0  0  0  0  0  0
  164.9504  149.6618  124.8757 C   0  0  0  0  0  0  0  0  0  0  0  0
  163.9487  149.3394  125.9627 C   0  0  1  0  0  0  0  0  0  0  0  0
  162.7103  150.1487  125.6195 C   0  0  0  0  0  0  0  0  0  0  0  0
  159.7822  146.5015  125.9885 C   0  0  0  0  0  0  0  0  0  0  0  0
  158.9240  146.3921  124.9166 O   0  0  0  0  0  0  0  0  0  0  0  0
  159.3958  146.8917  127.0844 O   0  0  0  0  0  0  0  0  0  0  0  0
  1  2  1  0
  2  3  1  0
  2  4  1  0
  4  5  1  0
  5  6  1  0
  6  7  1  0
  7  8  1  0
  8  9  1  0
  9 10  1  1
  9 11  1  0
 11 12  1  0
 12 13  1  6
 11 14  1  1
 14 15  2  0
 14 16  1  0
 16 17  2  0
 17 18  1  0
 18 19  1  1
 18 20  1  0
 20 21  2  0
 21 22  1  0
 22 23  3  0
 21 24  1  0
 24 25  2  0
 24 26  1  0
 26 27  1  0
 26 28  1  0
 26 29  1  0
 29 30  1  6
 30 31  1  0
 31 32  1  0
 32 33  1  6
  6 34  1  1
 34 35  1  0
 34 36  2  0
 13  2  1  0
 32 17  1  0
 12  6  1  0
 29 18  1  0
 32  9  1  0
M  END
$$$$
