
     RDKit          3D

 36 40  0  0  0  0  0  0  0  0999 V2000
  126.0094  166.4521  150.5498 C   0  0  0  0  0  0  0  0  0  0  0  0
  126.2926  165.7316  149.2134 C   0  0  0  0  0  0  0  0  0  0  0  0
  124.9615  165.6630  148.5038 C   0  0  0  0  0  0  0  0  0  0  0  0
  126.9042  164.4045  149.4939 C   0  0  0  0  0  0  0  0  0  0  0  0
  128.4028  164.3820  149.3446 C   0  0  0  0  0  0  0  0  0  0  0  0
  128.8180  164.6770  147.9162 C   0  0  2  0  0  0  0  0  0  0  0  0
  130.2933  164.9270  147.8223 C   0  0  0  0  0  0  0  0  0  0  0  0
  130.6519  166.3828  147.8125 C   0  0  0  0  0  0  0  0  0  0  0  0
  129.9541  167.2463  146.8402 C   0  0  2  0  0  0  0  0  0  0  0  0
  129.6948  168.5968  147.5336 C   0  0  0  0  0  0  0  0  0  0  0  0
  128.7218  166.5627  146.3966 C   0  0  1  0  0  0  0  0  0  0  0  0
  127.9534  165.8025  147.4313 C   0  0  2  0  0  0  0  0  0  0  0  0
  127.3047  166.5967  148.4929 C   0  0  0  0  0  0  0  0  0  0  0  0
  127.9408  167.4724  145.5757 C   0  0  0  0  0  0  0  0  0  0  0  0
  126.6564  167.4619  145.5627 O   0  0  0  0  0  0  0  0  0  0  0  0
  128.6680  168.4124  144.7504 C   0  0  0  0  0  0  0  0  0  0  0  0
  129.9787  168.5350  144.7543 C   0  0  0  0  0  0  0  0  0  0  0  0
  130.5220  169.5682  143.8316 C   0  0  1  0  0  0  0  0  0  0  0  0
  130.5510  169.0806  142.4059 C   0  0  0  0  0  0  0  0  0  0  0  0
  129.6701  170.7890  143.7860 C   0  0  0  0  0  0  0  0  0  0  0  0
  130.1156  171.9009  143.2678 C   0  0  0  0  0  0  0  0  0  0  0  0
  129.3290  173.0834  143.1991 C   0  0  0  0  0  0  0  0  0  0  0  0
  128.6745  174.0870  143.1447 N   0  0  0  0  0  0  0  0  0  0  0  0
  131.5126  171.9055  142.7589 C   0  0  0  0  0  0  0  0  0  0  0  0
  131.7959  172.5566  141.7610 O   0  0  0  0  0  0  0  0  0  0  0  0
  132.5198  171.1050  143.5076 C   0  0  0  0  0  0  0  0  0  0  0  0
  133.2185  172.1031  144.4461 C   0  0  0  0  0  0  0  0  0  0  0  0
  133.5779  170.5849  142.5912 C   0  0  0  0  0  0  0  0  0  0  0  0
  131.8312  170.0484  144.3448 C   0  0  2  0  0  0  0  0  0  0  0  0
  132.7449  168.9962  144.8828 C   0  0  0  0  0  0  0  0  0  0  0  0
  132.0273  168.3384  146.0470 C   0  0  0  0  0  0  0  0  0  0  0  0
  130.7687  167.6274  145.6007 C   0  0  1  0  0  0  0  0  0  0  0  0
  131.2478  166.4148  144.8220 C   0  0  0  0  0  0  0  0  0  0  0  0
  128.5427  163.3855  147.1710 C   0  0  0  0  0  0  0  0  0  0  0  0
  127.4337  163.3779  146.3541 O   0  0  0  0  0  0  0  0  0  0  0  0
  129.2632  162.4007  147.2863 O   0  0  0  0  0  0  0  0  0  0  0  0
  1  2  1  0
  2  3  1  0
  2  4  1  0
  4  5  1  0
  5  6  1  0
  6  7  1  0
  7  8  1  0
  8  9  1  0
  9 10  1  1
  9 11  1  0
 11 12  1  0
 12 13  1  1
 11 14  1  1
 14 15  2  0
 14 16  1  0
 16 17  2  0
 17 18  1  0
 18 19  1  6
 18 20  1  0
 20 21  2  0
 21 22  1  0
 22 23  3  0
 21 24  1  0
 24 25  2  0
 24 26  1  0
 26 27  1  0
 26 28  1  0
 26 29  1  0
 29 30  1  6
 30 31  1  0
 31 32  1  0
 32 33  1  6
  6 34  1  6
 34 35  1  0
 34 36  2  0
 13  2  1  0
 32 17  1  0
 12  6  1  0
 29 18  1  0
 32  9  1  0
M  END
$$$$
