
     RDKit          3D

 43 51  0  0  0  0  0  0  0  0999 V2000
  188.4336  159.3870  120.6175 C   0  0  0  0  0  0  0  0  0  0  0  0
  189.7168  159.3975  121.0787 O   0  0  0  0  0  0  0  0  0  0  0  0
  189.9630  160.0348  122.2684 C   0  0  2  0  0  0  0  0  0  0  0  0
  189.6645  161.5181  122.0752 C   0  0  1  0  0  0  0  0  0  0  0  0
  190.2065  161.7909  120.6805 C   0  0  0  0  0  0  0  0  0  0  0  0
  191.7123  161.5701  120.7503 C   0  0  1  0  0  0  0  0  0  0  0  0
  192.1286  161.0870  121.9421 O   0  0  0  0  0  0  0  0  0  0  0  0
  191.4948  159.9653  122.4680 C   0  0  1  0  0  0  0  0  0  0  0  0
  191.8667  159.9982  123.9321 C   0  0  0  0  0  0  0  0  0  0  0  0
  191.9861  158.7652  121.8430 N   0  0  0  0  0  0  0  0  0  0  0  0
  192.0703  157.5220  122.4131 C   0  0  0  0  0  0  0  0  0  0  0  0
  192.6300  156.6316  121.4924 C   0  0  0  0  0  0  0  0  0  0  0  0
  192.8183  155.3049  121.7829 C   0  0  0  0  0  0  0  0  0  0  0  0
  192.4395  154.8503  123.0224 C   0  0  0  0  0  0  0  0  0  0  0  0
  191.8845  155.6948  123.9550 C   0  0  0  0  0  0  0  0  0  0  0  0
  191.7009  157.0327  123.6448 C   0  0  0  0  0  0  0  0  0  0  0  0
  192.8843  157.3289  120.3583 C   0  0  0  0  0  0  0  0  0  0  0  0
  192.4952  158.6052  120.5753 C   0  0  0  0  0  0  0  0  0  0  0  0
  192.6007  159.5582  119.5957 C   0  0  0  0  0  0  0  0  0  0  0  0
  193.1157  159.2050  118.3613 C   0  0  0  0  0  0  0  0  0  0  0  0
  193.0879  160.3400  117.5952 C   0  0  0  0  0  0  0  0  0  0  0  0
  192.5565  161.3246  118.4060 C   0  0  0  0  0  0  0  0  0  0  0  0
  192.4009  162.5952  117.9049 C   0  0  0  0  0  0  0  0  0  0  0  0
  192.7634  162.9070  116.6137 C   0  0  0  0  0  0  0  0  0  0  0  0
  193.2882  161.9106  115.8307 C   0  0  0  0  0  0  0  0  0  0  0  0
  193.4628  160.6023  116.3049 C   0  0  0  0  0  0  0  0  0  0  0  0
  192.2592  160.8572  119.6217 N   0  0  0  0  0  0  0  0  0  0  0  0
  193.5206  157.8771  118.1432 C   0  0  0  0  0  0  0  0  0  0  0  0
  193.4085  156.9374  119.1320 C   0  0  0  0  0  0  0  0  0  0  0  0
  193.8894  155.6419  118.6751 C   0  0  0  0  0  0  0  0  0  0  0  0
  194.3158  155.8339  117.3325 N   0  0  0  0  0  0  0  0  0  0  0  0
  194.0930  157.2142  116.9846 C   0  0  0  0  0  0  0  0  0  0  0  0
  194.3799  157.6636  115.8472 O   0  0  0  0  0  0  0  0  0  0  0  0
  188.3126  161.8953  122.2483 N   0  0  0  0  0  0  0  0  0  0  0  0
  187.2948  161.2394  121.3650 C   0  0  0  0  0  0  0  0  0  0  0  0
  187.7787  162.8043  123.1751 C   0  0  0  0  0  0  0  0  0  0  0  0
  187.2471  163.8805  122.9137 O   0  0  0  0  0  0  0  0  0  0  0  0
  187.8525  162.4455  124.6105 C   0  0  0  0  0  0  0  0  0  0  0  0
  186.7904  161.9097  125.2949 C   0  0  0  0  0  0  0  0  0  0  0  0
  186.8872  161.5566  126.6424 C   0  0  0  0  0  0  0  0  0  0  0  0
  188.0803  161.7475  127.3128 C   0  0  0  0  0  0  0  0  0  0  0  0
  189.1476  162.2892  126.6170 C   0  0  0  0  0  0  0  0  0  0  0  0
  189.0584  162.6424  125.2787 C   0  0  0  0  0  0  0  0  0  0  0  0
  1  2  1  0
  3  2  1  6
  3  4  1  0
  4  5  1  0
  6  5  1  1
  6  7  1  0
  7  8  1  0
  8  9  1  1
  8 10  1  0
 10 11  1  0
 11 12  2  0
 12 13  1  0
 13 14  2  0
 14 15  1  0
 15 16  2  0
 12 17  1  0
 17 18  1  0
 18 19  2  0
 19 20  1  0
 20 21  1  0
 21 22  2  0
 22 23  1  0
 23 24  2  0
 24 25  1  0
 25 26  2  0
 22 27  1  0
 20 28  2  0
 28 29  1  0
 29 30  1  0
 30 31  1  0
 31 32  1  0
 32 33  2  0
  4 34  1  6
 34 35  1  0
 34 36  1  0
 36 37  2  0
 36 38  1  0
 38 39  2  0
 39 40  1  0
 40 41  2  0
 41 42  1  0
 42 43  2  0
  8  3  1  0
 18 10  1  0
 27 19  1  0
 32 28  1  0
 43 38  1  0
 27  6  1  0
 16 11  1  0
 29 17  2  0
 26 21  1  0
M  END
$$$$
