
     RDKit          3D

 43 51  0  0  0  0  0  0  0  0999 V2000
  142.4563  172.8150  162.7684 C   0  0  0  0  0  0  0  0  0  0  0  0
  141.8548  173.8884  162.1809 O   0  0  0  0  0  0  0  0  0  0  0  0
  142.4323  175.1203  162.3573 C   0  0  2  0  0  0  0  0  0  0  0  0
  141.4887  175.9616  163.2108 C   0  0  1  0  0  0  0  0  0  0  0  0
  140.1188  175.5840  162.6686 C   0  0  0  0  0  0  0  0  0  0  0  0
  140.0775  176.0644  161.2234 C   0  0  1  0  0  0  0  0  0  0  0  0
  141.2587  176.5573  160.7885 O   0  0  0  0  0  0  0  0  0  0  0  0
  142.4085  175.7937  160.9656 C   0  0  1  0  0  0  0  0  0  0  0  0
  143.5296  176.7953  160.8134 C   0  0  0  0  0  0  0  0  0  0  0  0
  142.4980  174.7699  159.9576 N   0  0  0  0  0  0  0  0  0  0  0  0
  143.6461  174.2298  159.4402 C   0  0  0  0  0  0  0  0  0  0  0  0
  143.3110  173.2891  158.4623 C   0  0  0  0  0  0  0  0  0  0  0  0
  144.2626  172.5720  157.7839 C   0  0  0  0  0  0  0  0  0  0  0  0
  145.5836  172.7954  158.0860 C   0  0  0  0  0  0  0  0  0  0  0  0
  145.9535  173.7117  159.0423 C   0  0  0  0  0  0  0  0  0  0  0  0
  144.9789  174.4277  159.7187 C   0  0  0  0  0  0  0  0  0  0  0  0
  141.9584  173.2506  158.3844 C   0  0  0  0  0  0  0  0  0  0  0  0
  141.4786  174.1390  159.2832 C   0  0  0  0  0  0  0  0  0  0  0  0
  140.1308  174.3133  159.4625 C   0  0  0  0  0  0  0  0  0  0  0  0
  139.2458  173.5644  158.7078 C   0  0  0  0  0  0  0  0  0  0  0  0
  137.9899  173.9377  159.1071 C   0  0  0  0  0  0  0  0  0  0  0  0
  138.1786  174.8954  160.0850 C   0  0  0  0  0  0  0  0  0  0  0  0
  137.0818  175.4659  160.6863 C   0  0  0  0  0  0  0  0  0  0  0  0
  135.8008  175.1035  160.3346 C   0  0  0  0  0  0  0  0  0  0  0  0
  135.6425  174.1504  159.3611 C   0  0  0  0  0  0  0  0  0  0  0  0
  136.7356  173.5451  158.7241 C   0  0  0  0  0  0  0  0  0  0  0  0
  139.4755  175.1288  160.3053 N   0  0  0  0  0  0  0  0  0  0  0  0
  139.7513  172.6445  157.7734 C   0  0  0  0  0  0  0  0  0  0  0  0
  141.1001  172.4823  157.6067 C   0  0  0  0  0  0  0  0  0  0  0  0
  141.3816  171.4808  156.5888 C   0  0  0  0  0  0  0  0  0  0  0  0
  140.1162  171.0284  156.1244 N   0  0  0  0  0  0  0  0  0  0  0  0
  139.0930  171.7380  156.8492 C   0  0  0  0  0  0  0  0  0  0  0  0
  137.8716  171.5319  156.6401 O   0  0  0  0  0  0  0  0  0  0  0  0
  141.6178  175.7930  164.6089 N   0  0  0  0  0  0  0  0  0  0  0  0
  141.4153  174.4135  165.1591 C   0  0  0  0  0  0  0  0  0  0  0  0
  141.9426  176.7611  165.5719 C   0  0  0  0  0  0  0  0  0  0  0  0
  141.1971  177.1943  166.4469 O   0  0  0  0  0  0  0  0  0  0  0  0
  143.3132  177.3229  165.5467 C   0  0  0  0  0  0  0  0  0  0  0  0
  144.2498  177.0325  166.5069 C   0  0  0  0  0  0  0  0  0  0  0  0
  145.5440  177.5540  166.4527 C   0  0  0  0  0  0  0  0  0  0  0  0
  145.9005  178.3850  165.4078 C   0  0  0  0  0  0  0  0  0  0  0  0
  144.9509  178.6746  164.4429 C   0  0  0  0  0  0  0  0  0  0  0  0
  143.6637  178.1604  164.4907 C   0  0  0  0  0  0  0  0  0  0  0  0
  1  2  1  0
  3  2  1  6
  3  4  1  0
  4  5  1  0
  6  5  1  1
  6  7  1  0
  7  8  1  0
  8  9  1  1
  8 10  1  0
 10 11  1  0
 11 12  2  0
 12 13  1  0
 13 14  2  0
 14 15  1  0
 15 16  2  0
 12 17  1  0
 17 18  1  0
 18 19  2  0
 19 20  1  0
 20 21  1  0
 21 22  2  0
 22 23  1  0
 23 24  2  0
 24 25  1  0
 25 26  2  0
 22 27  1  0
 20 28  2  0
 28 29  1  0
 29 30  1  0
 30 31  1  0
 31 32  1  0
 32 33  2  0
  4 34  1  1
 34 35  1  0
 34 36  1  0
 36 37  2  0
 36 38  1  0
 38 39  2  0
 39 40  1  0
 40 41  2  0
 41 42  1  0
 42 43  2  0
  8  3  1  0
 18 10  1  0
 27 19  1  0
 32 28  1  0
 43 38  1  0
 27  6  1  0
 16 11  1  0
 29 17  2  0
 26 21  1  0
M  END
$$$$
