
     RDKit          3D

 43 51  0  0  0  0  0  0  0  0999 V2000
  190.4262  163.4137  135.7957 C   0  0  0  0  0  0  0  0  0  0  0  0
  190.2420  162.3958  134.9072 O   0  0  0  0  0  0  0  0  0  0  0  0
  188.9543  162.0016  134.6453 C   0  0  2  0  0  0  0  0  0  0  0  0
  188.7234  160.6643  135.3418 C   0  0  1  0  0  0  0  0  0  0  0  0
  190.0410  159.9379  135.1195 C   0  0  0  0  0  0  0  0  0  0  0  0
  190.1693  159.7239  133.6165 C   0  0  1  0  0  0  0  0  0  0  0  0
  189.1890  160.3232  132.9042 O   0  0  0  0  0  0  0  0  0  0  0  0
  188.9205  161.6688  133.1356 C   0  0  1  0  0  0  0  0  0  0  0  0
  187.5392  161.8626  132.5544 C   0  0  0  0  0  0  0  0  0  0  0  0
  189.8806  162.5014  132.4594 N   0  0  0  0  0  0  0  0  0  0  0  0
  189.6669  163.7626  131.9682 C   0  0  0  0  0  0  0  0  0  0  0  0
  190.8360  164.2204  131.3539 C   0  0  0  0  0  0  0  0  0  0  0  0
  190.9222  165.4658  130.7870 C   0  0  0  0  0  0  0  0  0  0  0  0
  189.8164  166.2791  130.8321 C   0  0  0  0  0  0  0  0  0  0  0  0
  188.6483  165.8654  131.4281 C   0  0  0  0  0  0  0  0  0  0  0  0
  188.5784  164.6036  131.9967 C   0  0  0  0  0  0  0  0  0  0  0  0
  191.7657  163.2412  131.4729 C   0  0  0  0  0  0  0  0  0  0  0  0
  191.1868  162.2158  132.1367 C   0  0  0  0  0  0  0  0  0  0  0  0
  191.8874  161.0768  132.4384 C   0  0  0  0  0  0  0  0  0  0  0  0
  193.2128  160.9767  132.0551 C   0  0  0  0  0  0  0  0  0  0  0  0
  193.6484  159.7554  132.4964 C   0  0  0  0  0  0  0  0  0  0  0  0
  192.5626  159.1770  133.1254 C   0  0  0  0  0  0  0  0  0  0  0  0
  192.6963  157.9265  133.6807 C   0  0  0  0  0  0  0  0  0  0  0  0
  193.8880  157.2391  133.6227 C   0  0  0  0  0  0  0  0  0  0  0  0
  194.9494  157.8367  132.9924 C   0  0  0  0  0  0  0  0  0  0  0  0
  194.8532  159.1106  132.4137 C   0  0  0  0  0  0  0  0  0  0  0  0
  191.4903  159.9732  133.0934 N   0  0  0  0  0  0  0  0  0  0  0  0
  193.8077  162.0454  131.3631 C   0  0  0  0  0  0  0  0  0  0  0  0
  193.0943  163.1760  131.0698 C   0  0  0  0  0  0  0  0  0  0  0  0
  193.9169  164.1384  130.3520 C   0  0  0  0  0  0  0  0  0  0  0  0
  195.1952  163.5322  130.2107 N   0  0  0  0  0  0  0  0  0  0  0  0
  195.1469  162.2339  130.8335 C   0  0  0  0  0  0  0  0  0  0  0  0
  196.1477  161.4752  130.8582 O   0  0  0  0  0  0  0  0  0  0  0  0
  188.3348  160.7434  136.6992 N   0  0  0  0  0  0  0  0  0  0  0  0
  189.2970  161.3796  137.6564 C   0  0  0  0  0  0  0  0  0  0  0  0
  187.1303  160.3192  137.2817 C   0  0  0  0  0  0  0  0  0  0  0  0
  186.9176  160.1668  138.4819 O   0  0  0  0  0  0  0  0  0  0  0  0
  185.9951  160.0256  136.3763 C   0  0  0  0  0  0  0  0  0  0  0  0
  185.3629  160.9980  135.6426 C   0  0  0  0  0  0  0  0  0  0  0  0
  184.3093  160.6973  134.7770 C   0  0  0  0  0  0  0  0  0  0  0  0
  183.8855  159.3883  134.6486 C   0  0  0  0  0  0  0  0  0  0  0  0
  184.5267  158.4122  135.3920 C   0  0  0  0  0  0  0  0  0  0  0  0
  185.5735  158.7039  136.2539 C   0  0  0  0  0  0  0  0  0  0  0  0
  1  2  1  0
  3  2  1  1
  3  4  1  0
  4  5  1  0
  6  5  1  1
  6  7  1  0
  7  8  1  0
  8  9  1  6
  8 10  1  0
 10 11  1  0
 11 12  2  0
 12 13  1  0
 13 14  2  0
 14 15  1  0
 15 16  2  0
 12 17  1  0
 17 18  1  0
 18 19  2  0
 19 20  1  0
 20 21  1  0
 21 22  2  0
 22 23  1  0
 23 24  2  0
 24 25  1  0
 25 26  2  0
 22 27  1  0
 20 28  2  0
 28 29  1  0
 29 30  1  0
 30 31  1  0
 31 32  1  0
 32 33  2  0
  4 34  1  1
 34 35  1  0
 34 36  1  0
 36 37  2  0
 36 38  1  0
 38 39  2  0
 39 40  1  0
 40 41  2  0
 41 42  1  0
 42 43  2  0
  8  3  1  0
 18 10  1  0
 27 19  1  0
 32 28  1  0
 43 38  1  0
 27  6  1  0
 16 11  1  0
 29 17  2  0
 26 21  1  0
M  END
$$$$
