
     RDKit          3D

 43 51  0  0  0  0  0  0  0  0999 V2000
  198.9689  167.0585  126.3761 C   0  0  0  0  0  0  0  0  0  0  0  0
  198.2791  167.2168  127.5417 O   0  0  0  0  0  0  0  0  0  0  0  0
  196.9731  167.6293  127.4603 C   0  0  2  0  0  0  0  0  0  0  0  0
  196.8640  168.9787  128.1631 C   0  0  1  0  0  0  0  0  0  0  0  0
  197.7678  168.8011  129.3734 C   0  0  0  0  0  0  0  0  0  0  0  0
  197.1318  167.7161  130.2333 C   0  0  1  0  0  0  0  0  0  0  0  0
  196.0561  167.1361  129.6556 O   0  0  0  0  0  0  0  0  0  0  0  0
  196.1730  166.6546  128.3552 C   0  0  1  0  0  0  0  0  0  0  0  0
  194.7405  166.5240  127.8926 C   0  0  0  0  0  0  0  0  0  0  0  0
  196.8317  165.3747  128.3453 N   0  0  0  0  0  0  0  0  0  0  0  0
  196.6403  164.3635  127.4406 C   0  0  0  0  0  0  0  0  0  0  0  0
  197.4420  163.2742  127.7930 C   0  0  0  0  0  0  0  0  0  0  0  0
  197.4710  162.1205  127.0527 C   0  0  0  0  0  0  0  0  0  0  0  0
  196.6820  162.0474  125.9308 C   0  0  0  0  0  0  0  0  0  0  0  0
  195.8804  163.0981  125.5507 C   0  0  0  0  0  0  0  0  0  0  0  0
  195.8634  164.2569  126.3102 C   0  0  0  0  0  0  0  0  0  0  0  0
  198.1267  163.6204  128.9104 C   0  0  0  0  0  0  0  0  0  0  0  0
  197.7570  164.8796  129.2345 C   0  0  0  0  0  0  0  0  0  0  0  0
  198.3014  165.5262  130.3136 C   0  0  0  0  0  0  0  0  0  0  0  0
  199.2477  164.8757  131.0850 C   0  0  0  0  0  0  0  0  0  0  0  0
  199.6143  165.7576  132.0667 C   0  0  0  0  0  0  0  0  0  0  0  0
  198.8701  166.8994  131.8395 C   0  0  0  0  0  0  0  0  0  0  0  0
  199.0246  167.9789  132.6765 C   0  0  0  0  0  0  0  0  0  0  0  0
  199.9041  167.9460  133.7354 C   0  0  0  0  0  0  0  0  0  0  0  0
  200.6302  166.8002  133.9379 C   0  0  0  0  0  0  0  0  0  0  0  0
  200.5012  165.6780  133.1066 C   0  0  0  0  0  0  0  0  0  0  0  0
  198.0707  166.7657  130.7775 N   0  0  0  0  0  0  0  0  0  0  0  0
  199.6257  163.5658  130.7440 C   0  0  0  0  0  0  0  0  0  0  0  0
  199.0725  162.9342  129.6631 C   0  0  0  0  0  0  0  0  0  0  0  0
  199.6161  161.5928  129.5102 C   0  0  0  0  0  0  0  0  0  0  0  0
  200.5456  161.4238  130.5727 N   0  0  0  0  0  0  0  0  0  0  0  0
  200.5662  162.6382  131.3476 C   0  0  0  0  0  0  0  0  0  0  0  0
  201.3072  162.7676  132.3537 O   0  0  0  0  0  0  0  0  0  0  0  0
  197.1823  170.1059  127.3707 N   0  0  0  0  0  0  0  0  0  0  0  0
  198.4395  170.0443  126.5569 C   0  0  0  0  0  0  0  0  0  0  0  0
  196.4498  171.2936  127.2200 C   0  0  0  0  0  0  0  0  0  0  0  0
  196.8530  172.3364  126.7108 O   0  0  0  0  0  0  0  0  0  0  0  0
  195.0533  171.3073  127.7143 C   0  0  0  0  0  0  0  0  0  0  0  0
  194.7314  171.0798  129.0289 C   0  0  0  0  0  0  0  0  0  0  0  0
  193.4103  171.1199  129.4795 C   0  0  0  0  0  0  0  0  0  0  0  0
  192.3935  171.3959  128.5855 C   0  0  0  0  0  0  0  0  0  0  0  0
  192.7248  171.6237  127.2607 C   0  0  0  0  0  0  0  0  0  0  0  0
  194.0346  171.5850  126.8062 C   0  0  0  0  0  0  0  0  0  0  0  0
  1  2  1  0
  3  2  1  1
  3  4  1  0
  4  5  1  0
  6  5  1  6
  6  7  1  0
  7  8  1  0
  8  9  1  6
  8 10  1  0
 10 11  1  0
 11 12  2  0
 12 13  1  0
 13 14  2  0
 14 15  1  0
 15 16  2  0
 12 17  1  0
 17 18  1  0
 18 19  2  0
 19 20  1  0
 20 21  1  0
 21 22  2  0
 22 23  1  0
 23 24  2  0
 24 25  1  0
 25 26  2  0
 22 27  1  0
 20 28  2  0
 28 29  1  0
 29 30  1  0
 30 31  1  0
 31 32  1  0
 32 33  2  0
  4 34  1  6
 34 35  1  0
 34 36  1  0
 36 37  2  0
 36 38  1  0
 38 39  2  0
 39 40  1  0
 40 41  2  0
 41 42  1  0
 42 43  2  0
  8  3  1  0
 18 10  1  0
 27 19  1  0
 32 28  1  0
 43 38  1  0
 27  6  1  0
 16 11  1  0
 29 17  2  0
 26 21  1  0
M  END
$$$$
