
     RDKit          3D

 43 51  0  0  0  0  0  0  0  0999 V2000
  188.5703  158.7094  120.4234 C   0  0  0  0  0  0  0  0  0  0  0  0
  189.3387  159.8153  120.6377 O   0  0  0  0  0  0  0  0  0  0  0  0
  189.1734  160.4885  121.8217 C   0  0  2  0  0  0  0  0  0  0  0  0
  188.5482  161.8436  121.5062 C   0  0  1  0  0  0  0  0  0  0  0  0
  189.2659  162.2556  120.2301 C   0  0  0  0  0  0  0  0  0  0  0  0
  190.7336  162.4350  120.5973 C   0  0  1  0  0  0  0  0  0  0  0  0
  191.0166  162.0709  121.8680 O   0  0  0  0  0  0  0  0  0  0  0  0
  190.6012  160.8199  122.3141 C   0  0  1  0  0  0  0  0  0  0  0  0
  190.6560  160.9410  123.8193 C   0  0  0  0  0  0  0  0  0  0  0  0
  191.4975  159.7929  121.8513 N   0  0  0  0  0  0  0  0  0  0  0  0
  191.7840  158.6117  122.4840 C   0  0  0  0  0  0  0  0  0  0  0  0
  192.7236  157.9030  121.7301 C   0  0  0  0  0  0  0  0  0  0  0  0
  193.1852  156.6699  122.1126 C   0  0  0  0  0  0  0  0  0  0  0  0
  192.6991  156.1256  123.2762 C   0  0  0  0  0  0  0  0  0  0  0  0
  191.7734  156.7912  124.0449 C   0  0  0  0  0  0  0  0  0  0  0  0
  191.3173  158.0365  123.6435 C   0  0  0  0  0  0  0  0  0  0  0  0
  193.0087  158.6485  120.6346 C   0  0  0  0  0  0  0  0  0  0  0  0
  192.2701  159.7779  120.7135 C   0  0  0  0  0  0  0  0  0  0  0  0
  192.3184  160.7306  119.7291 C   0  0  0  0  0  0  0  0  0  0  0  0
  193.1396  160.5306  118.6341 C   0  0  0  0  0  0  0  0  0  0  0  0
  192.9729  161.6230  117.8249 C   0  0  0  0  0  0  0  0  0  0  0  0
  192.0575  162.4306  118.4724 C   0  0  0  0  0  0  0  0  0  0  0  0
  191.6827  163.6193  117.8923 C   0  0  0  0  0  0  0  0  0  0  0  0
  192.2003  164.0216  116.6814 C   0  0  0  0  0  0  0  0  0  0  0  0
  193.1070  163.2008  116.0606 C   0  0  0  0  0  0  0  0  0  0  0  0
  193.5146  161.9809  116.6197 C   0  0  0  0  0  0  0  0  0  0  0  0
  191.6565  161.8954  119.6289 N   0  0  0  0  0  0  0  0  0  0  0  0
  193.9067  159.3555  118.5595 C   0  0  0  0  0  0  0  0  0  0  0  0
  193.8470  158.4138  119.5510 C   0  0  0  0  0  0  0  0  0  0  0  0
  194.7247  157.2911  119.2554 C   0  0  0  0  0  0  0  0  0  0  0  0
  195.3435  157.5948  118.0119 N   0  0  0  0  0  0  0  0  0  0  0  0
  194.8469  158.8710  117.5641 C   0  0  0  0  0  0  0  0  0  0  0  0
  195.2271  159.3857  116.4831 O   0  0  0  0  0  0  0  0  0  0  0  0
  187.1381  161.8541  121.3994 N   0  0  0  0  0  0  0  0  0  0  0  0
  186.3842  160.7723  122.1120 C   0  0  0  0  0  0  0  0  0  0  0  0
  186.3276  162.7773  120.7206 C   0  0  0  0  0  0  0  0  0  0  0  0
  185.2644  162.5333  120.1556 O   0  0  0  0  0  0  0  0  0  0  0  0
  186.7818  164.1867  120.6739 C   0  0  0  0  0  0  0  0  0  0  0  0
  186.7404  165.0141  121.7681 C   0  0  0  0  0  0  0  0  0  0  0  0
  187.1949  166.3331  121.7096 C   0  0  0  0  0  0  0  0  0  0  0  0
  187.7021  166.8270  120.5230 C   0  0  0  0  0  0  0  0  0  0  0  0
  187.7404  165.9875  119.4227 C   0  0  0  0  0  0  0  0  0  0  0  0
  187.2904  164.6766  119.4736 C   0  0  0  0  0  0  0  0  0  0  0  0
  1  2  1  0
  3  2  1  6
  3  4  1  0
  4  5  1  0
  6  5  1  6
  6  7  1  0
  7  8  1  0
  8  9  1  1
  8 10  1  0
 10 11  1  0
 11 12  2  0
 12 13  1  0
 13 14  2  0
 14 15  1  0
 15 16  2  0
 12 17  1  0
 17 18  1  0
 18 19  2  0
 19 20  1  0
 20 21  1  0
 21 22  2  0
 22 23  1  0
 23 24  2  0
 24 25  1  0
 25 26  2  0
 22 27  1  0
 20 28  2  0
 28 29  1  0
 29 30  1  0
 30 31  1  0
 31 32  1  0
 32 33  2  0
  4 34  1  6
 34 35  1  0
 34 36  1  0
 36 37  2  0
 36 38  1  0
 38 39  2  0
 39 40  1  0
 40 41  2  0
 41 42  1  0
 42 43  2  0
  8  3  1  0
 18 10  1  0
 27 19  1  0
 32 28  1  0
 43 38  1  0
 27  6  1  0
 16 11  1  0
 29 17  2  0
 26 21  1  0
M  END
$$$$
