
     RDKit          3D

 43 51  0  0  0  0  0  0  0  0999 V2000
  139.8651  182.5844  148.1167 C   0  0  0  0  0  0  0  0  0  0  0  0
  140.7789  182.1136  147.2208 O   0  0  0  0  0  0  0  0  0  0  0  0
  140.8777  182.7548  146.0120 C   0  0  2  0  0  0  0  0  0  0  0  0
  140.6283  181.7253  144.9144 C   0  0  1  0  0  0  0  0  0  0  0  0
  141.3506  180.4938  145.4386 C   0  0  0  0  0  0  0  0  0  0  0  0
  142.8313  180.8490  145.4892 C   0  0  1  0  0  0  0  0  0  0  0  0
  143.0824  182.1440  145.1935 O   0  0  0  0  0  0  0  0  0  0  0  0
  142.3695  183.1338  145.8633 C   0  0  1  0  0  0  0  0  0  0  0  0
  142.5486  184.3549  144.9915 C   0  0  0  0  0  0  0  0  0  0  0  0
  142.9204  183.3568  147.1743 N   0  0  0  0  0  0  0  0  0  0  0  0
  142.9119  184.5341  147.8754 C   0  0  0  0  0  0  0  0  0  0  0  0
  143.5735  184.3485  149.0926 C   0  0  0  0  0  0  0  0  0  0  0  0
  143.7033  185.3564  150.0130 C   0  0  0  0  0  0  0  0  0  0  0  0
  143.1602  186.5825  149.7160 C   0  0  0  0  0  0  0  0  0  0  0  0
  142.5011  186.8043  148.5297 C   0  0  0  0  0  0  0  0  0  0  0  0
  142.3787  185.7745  147.6107 C   0  0  0  0  0  0  0  0  0  0  0  0
  143.9829  183.0572  149.1378 C   0  0  0  0  0  0  0  0  0  0  0  0
  143.5874  182.4695  147.9865 C   0  0  0  0  0  0  0  0  0  0  0  0
  143.8330  181.1430  147.7431 C   0  0  0  0  0  0  0  0  0  0  0  0
  144.4988  180.3927  148.6956 C   0  0  0  0  0  0  0  0  0  0  0  0
  144.5870  179.1227  148.1905 C   0  0  0  0  0  0  0  0  0  0  0  0
  143.9692  179.1686  146.9554 C   0  0  0  0  0  0  0  0  0  0  0  0
  143.8983  178.0240  146.1974 C   0  0  0  0  0  0  0  0  0  0  0  0
  144.4299  176.8343  146.6424 C   0  0  0  0  0  0  0  0  0  0  0  0
  145.0374  176.8170  147.8719 C   0  0  0  0  0  0  0  0  0  0  0  0
  145.1300  177.9631  148.6750 C   0  0  0  0  0  0  0  0  0  0  0  0
  143.5098  180.3918  146.6773 N   0  0  0  0  0  0  0  0  0  0  0  0
  144.9093  181.0105  149.8892 C   0  0  0  0  0  0  0  0  0  0  0  0
  144.6562  182.3361  150.1170 C   0  0  0  0  0  0  0  0  0  0  0  0
  145.1736  182.7492  151.4130 C   0  0  0  0  0  0  0  0  0  0  0  0
  145.7734  181.5925  151.9818 N   0  0  0  0  0  0  0  0  0  0  0  0
  145.6176  180.5034  151.0514 C   0  0  0  0  0  0  0  0  0  0  0  0
  146.0563  179.3531  151.3011 O   0  0  0  0  0  0  0  0  0  0  0  0
  139.2710  181.4982  144.5890 N   0  0  0  0  0  0  0  0  0  0  0  0
  138.6615  182.3644  143.5284 C   0  0  0  0  0  0  0  0  0  0  0  0
  138.4030  180.5312  145.1197 C   0  0  0  0  0  0  0  0  0  0  0  0
  137.3066  180.7420  145.6323 O   0  0  0  0  0  0  0  0  0  0  0  0
  138.8337  179.1149  145.0615 C   0  0  0  0  0  0  0  0  0  0  0  0
  138.6060  178.3165  143.9687 C   0  0  0  0  0  0  0  0  0  0  0  0
  139.0405  176.9902  143.9242 C   0  0  0  0  0  0  0  0  0  0  0  0
  139.7191  176.4591  145.0043 C   0  0  0  0  0  0  0  0  0  0  0  0
  139.9449  177.2694  146.1039 C   0  0  0  0  0  0  0  0  0  0  0  0
  139.5159  178.5873  146.1550 C   0  0  0  0  0  0  0  0  0  0  0  0
  1  2  1  0
  3  2  1  1
  3  4  1  0
  4  5  1  0
  6  5  1  1
  6  7  1  0
  7  8  1  0
  8  9  1  6
  8 10  1  0
 10 11  1  0
 11 12  2  0
 12 13  1  0
 13 14  2  0
 14 15  1  0
 15 16  2  0
 12 17  1  0
 17 18  1  0
 18 19  2  0
 19 20  1  0
 20 21  1  0
 21 22  2  0
 22 23  1  0
 23 24  2  0
 24 25  1  0
 25 26  2  0
 22 27  1  0
 20 28  2  0
 28 29  1  0
 29 30  1  0
 30 31  1  0
 31 32  1  0
 32 33  2  0
  4 34  1  1
 34 35  1  0
 34 36  1  0
 36 37  2  0
 36 38  1  0
 38 39  2  0
 39 40  1  0
 40 41  2  0
 41 42  1  0
 42 43  2  0
  8  3  1  0
 18 10  1  0
 27 19  1  0
 32 28  1  0
 43 38  1  0
 27  6  1  0
 16 11  1  0
 29 17  2  0
 26 21  1  0
M  END
$$$$
