
     RDKit          3D

 43 51  0  0  0  0  0  0  0  0999 V2000
  175.1119  164.0195  108.5916 C   0  0  0  0  0  0  0  0  0  0  0  0
  174.3421  164.5533  109.5825 O   0  0  0  0  0  0  0  0  0  0  0  0
  174.4677  165.8958  109.8361 C   0  0  2  0  0  0  0  0  0  0  0  0
  175.5271  166.0701  110.9196 C   0  0  1  0  0  0  0  0  0  0  0  0
  175.2375  164.9120  111.8620 C   0  0  0  0  0  0  0  0  0  0  0  0
  173.8530  165.1645  112.4456 C   0  0  1  0  0  0  0  0  0  0  0  0
  173.2265  166.2298  111.8980 O   0  0  0  0  0  0  0  0  0  0  0  0
  173.1420  166.3168  110.5117 C   0  0  1  0  0  0  0  0  0  0  0  0
  172.8301  167.7744  110.2636 C   0  0  0  0  0  0  0  0  0  0  0  0
  172.0847  165.4763  110.0140 N   0  0  0  0  0  0  0  0  0  0  0  0
  171.3311  165.6896  108.8896 C   0  0  0  0  0  0  0  0  0  0  0  0
  170.3884  164.6649  108.7674 C   0  0  0  0  0  0  0  0  0  0  0  0
  169.5055  164.6076  107.7200 C   0  0  0  0  0  0  0  0  0  0  0  0
  169.5611  165.5954  106.7674 C   0  0  0  0  0  0  0  0  0  0  0  0
  170.4748  166.6197  106.8519 C   0  0  0  0  0  0  0  0  0  0  0  0
  171.3601  166.6622  107.9169 C   0  0  0  0  0  0  0  0  0  0  0  0
  170.5680  163.8229  109.8142 C   0  0  0  0  0  0  0  0  0  0  0  0
  171.5858  164.3145  110.5556 C   0  0  0  0  0  0  0  0  0  0  0  0
  172.0274  163.6646  111.6788 C   0  0  0  0  0  0  0  0  0  0  0  0
  171.4181  162.4825  112.0597 C   0  0  0  0  0  0  0  0  0  0  0  0
  172.0680  162.0629  113.1900 C   0  0  0  0  0  0  0  0  0  0  0  0
  173.0394  163.0140  113.4366 C   0  0  0  0  0  0  0  0  0  0  0  0
  173.8671  162.8618  114.5237 C   0  0  0  0  0  0  0  0  0  0  0  0
  173.7480  161.7830  115.3711 C   0  0  0  0  0  0  0  0  0  0  0  0
  172.7753  160.8540  115.1027 C   0  0  0  0  0  0  0  0  0  0  0  0
  171.9116  160.9735  114.0042 C   0  0  0  0  0  0  0  0  0  0  0  0
  173.0201  163.9893  112.5238 N   0  0  0  0  0  0  0  0  0  0  0  0
  170.3589  161.9783  111.2859 C   0  0  0  0  0  0  0  0  0  0  0  0
  169.9300  162.6394  110.1668 C   0  0  0  0  0  0  0  0  0  0  0  0
  168.8276  161.9303  109.5344 C   0  0  0  0  0  0  0  0  0  0  0  0
  168.5904  160.7805  110.3363 N   0  0  0  0  0  0  0  0  0  0  0  0
  169.5322  160.7925  111.4266 C   0  0  0  0  0  0  0  0  0  0  0  0
  169.5495  159.8848  112.2948 O   0  0  0  0  0  0  0  0  0  0  0  0
  176.8645  166.1160  110.4624 N   0  0  0  0  0  0  0  0  0  0  0  0
  177.0986  166.5944  109.0613 C   0  0  0  0  0  0  0  0  0  0  0  0
  178.0330  165.7903  111.1684 C   0  0  0  0  0  0  0  0  0  0  0  0
  178.4017  164.6611  111.4817 O   0  0  0  0  0  0  0  0  0  0  0  0
  178.9200  166.9031  111.5803 C   0  0  0  0  0  0  0  0  0  0  0  0
  178.8067  167.5282  112.7968 C   0  0  0  0  0  0  0  0  0  0  0  0
  179.6676  168.5602  113.1758 C   0  0  0  0  0  0  0  0  0  0  0  0
  180.6637  168.9692  112.3097 C   0  0  0  0  0  0  0  0  0  0  0  0
  180.7721  168.3351  111.0838 C   0  0  0  0  0  0  0  0  0  0  0  0
  179.9203  167.3098  110.7009 C   0  0  0  0  0  0  0  0  0  0  0  0
  1  2  1  0
  3  2  1  1
  3  4  1  0
  4  5  1  0
  6  5  1  6
  6  7  1  0
  7  8  1  0
  8  9  1  1
  8 10  1  0
 10 11  1  0
 11 12  2  0
 12 13  1  0
 13 14  2  0
 14 15  1  0
 15 16  2  0
 12 17  1  0
 17 18  1  0
 18 19  2  0
 19 20  1  0
 20 21  1  0
 21 22  2  0
 22 23  1  0
 23 24  2  0
 24 25  1  0
 25 26  2  0
 22 27  1  0
 20 28  2  0
 28 29  1  0
 29 30  1  0
 30 31  1  0
 31 32  1  0
 32 33  2  0
  4 34  1  6
 34 35  1  0
 34 36  1  0
 36 37  2  0
 36 38  1  0
 38 39  2  0
 39 40  1  0
 40 41  2  0
 41 42  1  0
 42 43  2  0
  8  3  1  0
 18 10  1  0
 27 19  1  0
 32 28  1  0
 43 38  1  0
 27  6  1  0
 16 11  1  0
 29 17  2  0
 26 21  1  0
M  END
$$$$
