
     RDKit          3D

 43 51  0  0  0  0  0  0  0  0999 V2000
  114.9816  167.5387  145.0319 C   0  0  0  0  0  0  0  0  0  0  0  0
  116.2448  167.4249  144.5312 O   0  0  0  0  0  0  0  0  0  0  0  0
  117.2837  167.3671  145.4254 C   0  0  2  0  0  0  0  0  0  0  0  0
  117.8262  168.7814  145.6044 C   0  0  1  0  0  0  0  0  0  0  0  0
  117.7715  169.3434  144.1922 C   0  0  0  0  0  0  0  0  0  0  0  0
  118.7436  168.5171  143.3595 C   0  0  1  0  0  0  0  0  0  0  0  0
  119.2725  167.4715  144.0335 O   0  0  0  0  0  0  0  0  0  0  0  0
  118.4145  166.6018  144.6998 C   0  0  1  0  0  0  0  0  0  0  0  0
  119.3185  165.8874  145.6774 C   0  0  0  0  0  0  0  0  0  0  0  0
  117.8209  165.6693  143.7777 N   0  0  0  0  0  0  0  0  0  0  0  0
  117.4219  164.3878  144.0540 C   0  0  0  0  0  0  0  0  0  0  0  0
  116.9256  163.7997  142.8872 C   0  0  0  0  0  0  0  0  0  0  0  0
  116.4347  162.5197  142.8677 C   0  0  0  0  0  0  0  0  0  0  0  0
  116.4365  161.8044  144.0402 C   0  0  0  0  0  0  0  0  0  0  0  0
  116.9153  162.3481  145.2089 C   0  0  0  0  0  0  0  0  0  0  0  0
  117.4076  163.6434  145.2110 C   0  0  0  0  0  0  0  0  0  0  0  0
  117.0171  164.7224  141.8985 C   0  0  0  0  0  0  0  0  0  0  0  0
  117.5530  165.8394  142.4394 C   0  0  0  0  0  0  0  0  0  0  0  0
  117.7488  166.9702  141.6898 C   0  0  0  0  0  0  0  0  0  0  0  0
  117.3904  166.9664  140.3537 C   0  0  0  0  0  0  0  0  0  0  0  0
  117.6850  168.2151  139.8741 C   0  0  0  0  0  0  0  0  0  0  0  0
  118.2078  168.9128  140.9460 C   0  0  0  0  0  0  0  0  0  0  0  0
  118.6008  170.2183  140.7698 C   0  0  0  0  0  0  0  0  0  0  0  0
  118.4850  170.8442  139.5488 C   0  0  0  0  0  0  0  0  0  0  0  0
  117.9628  170.1283  138.5019 C   0  0  0  0  0  0  0  0  0  0  0  0
  117.5504  168.7950  138.6413 C   0  0  0  0  0  0  0  0  0  0  0  0
  118.2500  168.1632  142.0510 N   0  0  0  0  0  0  0  0  0  0  0  0
  116.8362  165.8011  139.7971 C   0  0  0  0  0  0  0  0  0  0  0  0
  116.6470  164.6802  140.5594 C   0  0  0  0  0  0  0  0  0  0  0  0
  116.0636  163.6063  139.7691 C   0  0  0  0  0  0  0  0  0  0  0  0
  115.9037  164.1286  138.4565 N   0  0  0  0  0  0  0  0  0  0  0  0
  116.3761  165.4898  138.4552 C   0  0  0  0  0  0  0  0  0  0  0  0
  116.3495  166.1974  137.4177 O   0  0  0  0  0  0  0  0  0  0  0  0
  117.1545  169.5749  146.5631 N   0  0  0  0  0  0  0  0  0  0  0  0
  115.6671  169.4209  146.6662 C   0  0  0  0  0  0  0  0  0  0  0  0
  117.7084  170.4912  147.4707 C   0  0  0  0  0  0  0  0  0  0  0  0
  117.4465  171.6891  147.5449 O   0  0  0  0  0  0  0  0  0  0  0  0
  118.7041  169.9805  148.4416 C   0  0  0  0  0  0  0  0  0  0  0  0
  120.0268  170.3447  148.4058 C   0  0  0  0  0  0  0  0  0  0  0  0
  120.9454  169.8702  149.3444 C   0  0  0  0  0  0  0  0  0  0  0  0
  120.5202  169.0112  150.3398 C   0  0  0  0  0  0  0  0  0  0  0  0
  119.1849  168.6471  150.3699 C   0  0  0  0  0  0  0  0  0  0  0  0
  118.2673  169.1143  149.4408 C   0  0  0  0  0  0  0  0  0  0  0  0
  1  2  1  0
  3  2  1  6
  3  4  1  0
  4  5  1  0
  6  5  1  1
  6  7  1  0
  7  8  1  0
  8  9  1  1
  8 10  1  0
 10 11  1  0
 11 12  2  0
 12 13  1  0
 13 14  2  0
 14 15  1  0
 15 16  2  0
 12 17  1  0
 17 18  1  0
 18 19  2  0
 19 20  1  0
 20 21  1  0
 21 22  2  0
 22 23  1  0
 23 24  2  0
 24 25  1  0
 25 26  2  0
 22 27  1  0
 20 28  2  0
 28 29  1  0
 29 30  1  0
 30 31  1  0
 31 32  1  0
 32 33  2  0
  4 34  1  1
 34 35  1  0
 34 36  1  0
 36 37  2  0
 36 38  1  0
 38 39  2  0
 39 40  1  0
 40 41  2  0
 41 42  1  0
 42 43  2  0
  8  3  1  0
 18 10  1  0
 27 19  1  0
 32 28  1  0
 43 38  1  0
 27  6  1  0
 16 11  1  0
 29 17  2  0
 26 21  1  0
M  END
$$$$
