
     RDKit          3D

 43 51  0  0  0  0  0  0  0  0999 V2000
  205.0212  132.6477  138.1376 C   0  0  0  0  0  0  0  0  0  0  0  0
  204.2335  132.1100  137.1630 O   0  0  0  0  0  0  0  0  0  0  0  0
  202.8744  132.1483  137.3463 C   0  0  2  0  0  0  0  0  0  0  0  0
  202.3645  130.7109  137.3688 C   0  0  1  0  0  0  0  0  0  0  0  0
  203.1941  130.0432  136.2829 C   0  0  0  0  0  0  0  0  0  0  0  0
  202.8055  130.7103  134.9694 C   0  0  1  0  0  0  0  0  0  0  0  0
  201.9642  131.7564  135.1279 O   0  0  0  0  0  0  0  0  0  0  0  0
  202.2963  132.7496  136.0443 C   0  0  1  0  0  0  0  0  0  0  0  0
  200.9854  133.4585  136.2935 C   0  0  0  0  0  0  0  0  0  0  0  0
  203.2670  133.6529  135.4840 N   0  0  0  0  0  0  0  0  0  0  0  0
  203.4132  134.9827  135.7804 C   0  0  0  0  0  0  0  0  0  0  0  0
  204.4455  135.5156  135.0032 C   0  0  0  0  0  0  0  0  0  0  0  0
  204.8295  136.8281  135.1019 C   0  0  0  0  0  0  0  0  0  0  0  0
  204.1700  137.6333  135.9980 C   0  0  0  0  0  0  0  0  0  0  0  0
  203.1500  137.1460  136.7810 C   0  0  0  0  0  0  0  0  0  0  0  0
  202.7747  135.8169  136.6688 C   0  0  0  0  0  0  0  0  0  0  0  0
  204.9333  134.5113  134.2347 C   0  0  0  0  0  0  0  0  0  0  0  0
  204.2236  133.3990  134.5288 C   0  0  0  0  0  0  0  0  0  0  0  0
  204.5003  132.1982  133.9283 C   0  0  0  0  0  0  0  0  0  0  0  0
  205.5263  132.1252  133.0034 C   0  0  0  0  0  0  0  0  0  0  0  0
  205.5771  130.8206  132.5892 C   0  0  0  0  0  0  0  0  0  0  0  0
  204.5774  130.1689  133.2855 C   0  0  0  0  0  0  0  0  0  0  0  0
  204.3826  128.8238  133.0787 C   0  0  0  0  0  0  0  0  0  0  0  0
  205.1615  128.1136  132.1928 C   0  0  0  0  0  0  0  0  0  0  0  0
  206.1466  128.7854  131.5150 C   0  0  0  0  0  0  0  0  0  0  0  0
  206.3768  130.1567  131.6982 C   0  0  0  0  0  0  0  0  0  0  0  0
  203.9194  130.9990  134.0996 N   0  0  0  0  0  0  0  0  0  0  0  0
  206.2585  133.2858  132.7004 C   0  0  0  0  0  0  0  0  0  0  0  0
  205.9697  134.4772  133.3091 C   0  0  0  0  0  0  0  0  0  0  0  0
  206.8560  135.5306  132.8371 C   0  0  0  0  0  0  0  0  0  0  0  0
  207.7186  134.9196  131.8863 N   0  0  0  0  0  0  0  0  0  0  0  0
  207.3638  133.5265  131.7896 C   0  0  0  0  0  0  0  0  0  0  0  0
  207.9707  132.7421  131.0186 O   0  0  0  0  0  0  0  0  0  0  0  0
  202.4316  130.0601  138.6226 N   0  0  0  0  0  0  0  0  0  0  0  0
  201.5307  128.8817  138.8373 C   0  0  0  0  0  0  0  0  0  0  0  0
  203.2659  130.3600  139.7108 C   0  0  0  0  0  0  0  0  0  0  0  0
  204.4744  130.5755  139.6621 O   0  0  0  0  0  0  0  0  0  0  0  0
  202.6451  130.4303  141.0540 C   0  0  0  0  0  0  0  0  0  0  0  0
  201.8344  131.4678  141.4412 C   0  0  0  0  0  0  0  0  0  0  0  0
  201.2398  131.5041  142.7041 C   0  0  0  0  0  0  0  0  0  0  0  0
  201.4674  130.4719  143.5942 C   0  0  0  0  0  0  0  0  0  0  0  0
  202.2867  129.4287  143.1978 C   0  0  0  0  0  0  0  0  0  0  0  0
  202.8807  129.3865  141.9452 C   0  0  0  0  0  0  0  0  0  0  0  0
  1  2  1  0
  3  2  1  6
  3  4  1  0
  4  5  1  0
  6  5  1  1
  6  7  1  0
  7  8  1  0
  8  9  1  1
  8 10  1  0
 10 11  1  0
 11 12  2  0
 12 13  1  0
 13 14  2  0
 14 15  1  0
 15 16  2  0
 12 17  1  0
 17 18  1  0
 18 19  2  0
 19 20  1  0
 20 21  1  0
 21 22  2  0
 22 23  1  0
 23 24  2  0
 24 25  1  0
 25 26  2  0
 22 27  1  0
 20 28  2  0
 28 29  1  0
 29 30  1  0
 30 31  1  0
 31 32  1  0
 32 33  2  0
  4 34  1  1
 34 35  1  0
 34 36  1  0
 36 37  2  0
 36 38  1  0
 38 39  2  0
 39 40  1  0
 40 41  2  0
 41 42  1  0
 42 43  2  0
  8  3  1  0
 18 10  1  0
 27 19  1  0
 32 28  1  0
 43 38  1  0
 27  6  1  0
 16 11  1  0
 29 17  2  0
 26 21  1  0
M  END
$$$$
