
     RDKit          3D

 43 51  0  0  0  0  0  0  0  0999 V2000
  184.9900  173.7958  150.0667 C   0  0  0  0  0  0  0  0  0  0  0  0
  185.4594  174.1030  148.8239 O   0  0  0  0  0  0  0  0  0  0  0  0
  185.4733  175.4243  148.4547 C   0  0  2  0  0  0  0  0  0  0  0  0
  184.3161  175.6519  147.4874 C   0  0  1  0  0  0  0  0  0  0  0  0
  184.3358  174.3909  146.6373 C   0  0  0  0  0  0  0  0  0  0  0  0
  185.6562  174.4016  145.8773 C   0  0  1  0  0  0  0  0  0  0  0  0
  186.4763  175.4125  146.2417 O   0  0  0  0  0  0  0  0  0  0  0  0
  186.7454  175.6019  147.5938 C   0  0  1  0  0  0  0  0  0  0  0  0
  187.2676  177.0183  147.6592 C   0  0  0  0  0  0  0  0  0  0  0  0
  187.7425  174.6684  148.0482 N   0  0  0  0  0  0  0  0  0  0  0  0
  188.6530  174.8688  149.0525 C   0  0  0  0  0  0  0  0  0  0  0  0
  189.4666  173.7381  149.1671 C   0  0  0  0  0  0  0  0  0  0  0  0
  190.4604  173.6472  150.1073 C   0  0  0  0  0  0  0  0  0  0  0  0
  190.6506  174.7089  150.9576 C   0  0  0  0  0  0  0  0  0  0  0  0
  189.8703  175.8383  150.8770 C   0  0  0  0  0  0  0  0  0  0  0  0
  188.8700  175.9135  149.9211 C   0  0  0  0  0  0  0  0  0  0  0  0
  189.0514  172.8448  148.2361 C   0  0  0  0  0  0  0  0  0  0  0  0
  188.0183  173.4082  147.5708 C   0  0  0  0  0  0  0  0  0  0  0  0
  187.3600  172.7341  146.5752 C   0  0  0  0  0  0  0  0  0  0  0  0
  187.7621  171.4521  146.2462 C   0  0  0  0  0  0  0  0  0  0  0  0
  186.9270  171.0334  145.2446 C   0  0  0  0  0  0  0  0  0  0  0  0
  186.0601  172.0851  145.0176 C   0  0  0  0  0  0  0  0  0  0  0  0
  185.0892  171.9583  144.0525 C   0  0  0  0  0  0  0  0  0  0  0  0
  184.9632  170.8068  143.3081 C   0  0  0  0  0  0  0  0  0  0  0  0
  185.8369  169.7786  143.5542 C   0  0  0  0  0  0  0  0  0  0  0  0
  186.8405  169.8691  144.5297 C   0  0  0  0  0  0  0  0  0  0  0  0
  186.3175  173.1208  145.8212 N   0  0  0  0  0  0  0  0  0  0  0  0
  188.8384  170.8732  146.9400 C   0  0  0  0  0  0  0  0  0  0  0  0
  189.4852  171.5598  147.9319 C   0  0  0  0  0  0  0  0  0  0  0  0
  190.5603  170.7610  148.5013 C   0  0  0  0  0  0  0  0  0  0  0  0
  190.5472  169.5269  147.7954 N   0  0  0  0  0  0  0  0  0  0  0  0
  189.4844  169.5776  146.8239 C   0  0  0  0  0  0  0  0  0  0  0  0
  189.2431  168.6120  146.0575 O   0  0  0  0  0  0  0  0  0  0  0  0
  183.0637  175.9188  148.0875 N   0  0  0  0  0  0  0  0  0  0  0  0
  182.9913  175.8699  149.5838 C   0  0  0  0  0  0  0  0  0  0  0  0
  181.8555  176.2561  147.4576 C   0  0  0  0  0  0  0  0  0  0  0  0
  180.9721  175.4745  147.1144 O   0  0  0  0  0  0  0  0  0  0  0  0
  181.6043  177.6884  147.1750 C   0  0  0  0  0  0  0  0  0  0  0  0
  181.8569  178.2568  145.9516 C   0  0  0  0  0  0  0  0  0  0  0  0
  181.5914  179.6040  145.6982 C   0  0  0  0  0  0  0  0  0  0  0  0
  181.0595  180.3937  146.6997 C   0  0  0  0  0  0  0  0  0  0  0  0
  180.8078  179.8146  147.9317 C   0  0  0  0  0  0  0  0  0  0  0  0
  181.0693  178.4774  148.1904 C   0  0  0  0  0  0  0  0  0  0  0  0
  1  2  1  0
  3  2  1  6
  3  4  1  0
  4  5  1  0
  6  5  1  1
  6  7  1  0
  7  8  1  0
  8  9  1  6
  8 10  1  0
 10 11  1  0
 11 12  2  0
 12 13  1  0
 13 14  2  0
 14 15  1  0
 15 16  2  0
 12 17  1  0
 17 18  1  0
 18 19  2  0
 19 20  1  0
 20 21  1  0
 21 22  2  0
 22 23  1  0
 23 24  2  0
 24 25  1  0
 25 26  2  0
 22 27  1  0
 20 28  2  0
 28 29  1  0
 29 30  1  0
 30 31  1  0
 31 32  1  0
 32 33  2  0
  4 34  1  1
 34 35  1  0
 34 36  1  0
 36 37  2  0
 36 38  1  0
 38 39  2  0
 39 40  1  0
 40 41  2  0
 41 42  1  0
 42 43  2  0
  8  3  1  0
 18 10  1  0
 27 19  1  0
 32 28  1  0
 43 38  1  0
 27  6  1  0
 16 11  1  0
 29 17  2  0
 26 21  1  0
M  END
$$$$
