
     RDKit          3D

 43 51  0  0  0  0  0  0  0  0999 V2000
  188.2955  160.5130  120.2482 C   0  0  0  0  0  0  0  0  0  0  0  0
  189.2751  161.4611  120.2206 O   0  0  0  0  0  0  0  0  0  0  0  0
  189.2290  162.4552  121.1651 C   0  0  2  0  0  0  0  0  0  0  0  0
  189.1294  163.7905  120.4345 C   0  0  1  0  0  0  0  0  0  0  0  0
  190.0664  163.5971  119.2522 C   0  0  0  0  0  0  0  0  0  0  0  0
  191.4651  163.4264  119.8315 C   0  0  1  0  0  0  0  0  0  0  0  0
  191.4821  163.3642  121.1817 O   0  0  0  0  0  0  0  0  0  0  0  0
  190.6290  162.4701  121.8214 C   0  0  1  0  0  0  0  0  0  0  0  0
  190.5719  162.9842  123.2411 C   0  0  0  0  0  0  0  0  0  0  0  0
  191.1696  161.1365  121.7823 N   0  0  0  0  0  0  0  0  0  0  0  0
  190.9789  160.1493  122.7132 C   0  0  0  0  0  0  0  0  0  0  0  0
  191.6959  159.0122  122.3302 C   0  0  0  0  0  0  0  0  0  0  0  0
  191.6764  157.8557  123.0664 C   0  0  0  0  0  0  0  0  0  0  0  0
  190.9232  157.8280  124.2146 C   0  0  0  0  0  0  0  0  0  0  0  0
  190.2033  158.9256  124.6242 C   0  0  0  0  0  0  0  0  0  0  0  0
  190.2338  160.0864  123.8681 C   0  0  0  0  0  0  0  0  0  0  0  0
  192.3217  159.3025  121.1635 C   0  0  0  0  0  0  0  0  0  0  0  0
  192.0011  160.5755  120.8412 C   0  0  0  0  0  0  0  0  0  0  0  0
  192.4636  161.1564  119.6889 C   0  0  0  0  0  0  0  0  0  0  0  0
  193.2742  160.4239  118.8405 C   0  0  0  0  0  0  0  0  0  0  0  0
  193.5648  161.2452  117.7837 C   0  0  0  0  0  0  0  0  0  0  0  0
  192.9143  162.4356  118.0464 C   0  0  0  0  0  0  0  0  0  0  0  0
  193.0197  163.4706  117.1478 C   0  0  0  0  0  0  0  0  0  0  0  0
  193.7595  163.3462  115.9931 C   0  0  0  0  0  0  0  0  0  0  0  0
  194.3948  162.1538  115.7573 C   0  0  0  0  0  0  0  0  0  0  0  0
  194.3118  161.0745  116.6492 C   0  0  0  0  0  0  0  0  0  0  0  0
  192.2445  162.3889  119.2014 N   0  0  0  0  0  0  0  0  0  0  0  0
  193.6057  159.1018  119.1828 C   0  0  0  0  0  0  0  0  0  0  0  0
  193.1355  158.5364  120.3372 C   0  0  0  0  0  0  0  0  0  0  0  0
  193.6101  157.1676  120.4766 C   0  0  0  0  0  0  0  0  0  0  0  0
  194.4148  156.9139  119.3323 N   0  0  0  0  0  0  0  0  0  0  0  0
  194.4223  158.1020  118.5173 C   0  0  0  0  0  0  0  0  0  0  0  0
  195.0584  158.1572  117.4355 O   0  0  0  0  0  0  0  0  0  0  0  0
  187.8226  164.1900  120.0705 N   0  0  0  0  0  0  0  0  0  0  0  0
  187.4287  164.0335  118.6328 C   0  0  0  0  0  0  0  0  0  0  0  0
  186.8113  164.7024  120.8980 C   0  0  0  0  0  0  0  0  0  0  0  0
  186.0791  164.0511  121.6388 O   0  0  0  0  0  0  0  0  0  0  0  0
  186.5947  166.1679  120.8917 C   0  0  0  0  0  0  0  0  0  0  0  0
  187.6299  167.0690  120.9035 C   0  0  0  0  0  0  0  0  0  0  0  0
  187.4052  168.4468  120.8739 C   0  0  0  0  0  0  0  0  0  0  0  0
  186.1095  168.9251  120.8309 C   0  0  0  0  0  0  0  0  0  0  0  0
  185.0698  168.0110  120.8200 C   0  0  0  0  0  0  0  0  0  0  0  0
  185.2857  166.6413  120.8496 C   0  0  0  0  0  0  0  0  0  0  0  0
  1  2  1  0
  3  2  1  6
  3  4  1  0
  4  5  1  0
  6  5  1  6
  6  7  1  0
  7  8  1  0
  8  9  1  1
  8 10  1  0
 10 11  1  0
 11 12  2  0
 12 13  1  0
 13 14  2  0
 14 15  1  0
 15 16  2  0
 12 17  1  0
 17 18  1  0
 18 19  2  0
 19 20  1  0
 20 21  1  0
 21 22  2  0
 22 23  1  0
 23 24  2  0
 24 25  1  0
 25 26  2  0
 22 27  1  0
 20 28  2  0
 28 29  1  0
 29 30  1  0
 30 31  1  0
 31 32  1  0
 32 33  2  0
  4 34  1  6
 34 35  1  0
 34 36  1  0
 36 37  2  0
 36 38  1  0
 38 39  2  0
 39 40  1  0
 40 41  2  0
 41 42  1  0
 42 43  2  0
  8  3  1  0
 18 10  1  0
 27 19  1  0
 32 28  1  0
 43 38  1  0
 27  6  1  0
 16 11  1  0
 29 17  2  0
 26 21  1  0
M  END
$$$$
