
     RDKit          3D

 43 51  0  0  0  0  0  0  0  0999 V2000
  190.6570  162.0820  123.9292 C   0  0  0  0  0  0  0  0  0  0  0  0
  190.0613  161.6129  122.7959 O   0  0  0  0  0  0  0  0  0  0  0  0
  189.5334  162.5315  121.9243 C   0  0  2  0  0  0  0  0  0  0  0  0
  188.0134  162.4362  122.0079 C   0  0  1  0  0  0  0  0  0  0  0  0
  187.7767  160.9382  122.1237 C   0  0  0  0  0  0  0  0  0  0  0  0
  188.2636  160.3207  120.8188 C   0  0  1  0  0  0  0  0  0  0  0  0
  188.8675  161.2088  119.9980 O   0  0  0  0  0  0  0  0  0  0  0  0
  189.8824  162.0112  120.5105 C   0  0  1  0  0  0  0  0  0  0  0  0
  189.9836  163.1407  119.5119 C   0  0  0  0  0  0  0  0  0  0  0  0
  191.1203  161.2800  120.5819 N   0  0  0  0  0  0  0  0  0  0  0  0
  192.3838  161.7983  120.4702 C   0  0  0  0  0  0  0  0  0  0  0  0
  193.3156  160.7606  120.5618 C   0  0  0  0  0  0  0  0  0  0  0  0
  194.6666  160.9863  120.5018 C   0  0  0  0  0  0  0  0  0  0  0  0
  195.1039  162.2791  120.3472 C   0  0  0  0  0  0  0  0  0  0  0  0
  194.2186  163.3272  120.2542 C   0  0  0  0  0  0  0  0  0  0  0  0
  192.8564  163.0813  120.3170 C   0  0  0  0  0  0  0  0  0  0  0  0
  192.6226  159.6085  120.7336 C   0  0  0  0  0  0  0  0  0  0  0  0
  191.3090  159.9274  120.7457 C   0  0  0  0  0  0  0  0  0  0  0  0
  190.3454  158.9702  120.9310 C   0  0  0  0  0  0  0  0  0  0  0  0
  190.7267  157.6524  121.1088 C   0  0  0  0  0  0  0  0  0  0  0  0
  189.5704  156.9385  121.2803 C   0  0  0  0  0  0  0  0  0  0  0  0
  188.5460  157.8619  121.1974 C   0  0  0  0  0  0  0  0  0  0  0  0
  187.2460  157.4364  121.3350 C   0  0  0  0  0  0  0  0  0  0  0  0
  186.9439  156.1108  121.5530 C   0  0  0  0  0  0  0  0  0  0  0  0
  187.9801  155.2157  121.6311 C   0  0  0  0  0  0  0  0  0  0  0  0
  189.3192  155.6101  121.4960 C   0  0  0  0  0  0  0  0  0  0  0  0
  189.0091  159.0969  120.9848 N   0  0  0  0  0  0  0  0  0  0  0  0
  192.0938  157.3273  121.0926 C   0  0  0  0  0  0  0  0  0  0  0  0
  193.0435  158.2951  120.9066 C   0  0  0  0  0  0  0  0  0  0  0  0
  194.3811  157.7219  120.9274 C   0  0  0  0  0  0  0  0  0  0  0  0
  194.2057  156.3263  121.1346 N   0  0  0  0  0  0  0  0  0  0  0  0
  192.7931  156.0632  121.2412 C   0  0  0  0  0  0  0  0  0  0  0  0
  192.3495  154.9032  121.4303 O   0  0  0  0  0  0  0  0  0  0  0  0
  187.4112  163.1928  123.0397 N   0  0  0  0  0  0  0  0  0  0  0  0
  186.7959  162.4384  124.1793 C   0  0  0  0  0  0  0  0  0  0  0  0
  187.3317  164.5893  123.1565 C   0  0  0  0  0  0  0  0  0  0  0  0
  187.9594  165.2892  123.9472 O   0  0  0  0  0  0  0  0  0  0  0  0
  186.4090  165.3040  122.2440 C   0  0  0  0  0  0  0  0  0  0  0  0
  186.7951  165.7579  121.0077 C   0  0  0  0  0  0  0  0  0  0  0  0
  185.9037  166.4092  120.1527 C   0  0  0  0  0  0  0  0  0  0  0  0
  184.5959  166.6058  120.5531 C   0  0  0  0  0  0  0  0  0  0  0  0
  184.2130  166.1463  121.8017 C   0  0  0  0  0  0  0  0  0  0  0  0
  185.0931  165.4989  122.6561 C   0  0  0  0  0  0  0  0  0  0  0  0
  1  2  1  0
  3  2  1  1
  3  4  1  0
  4  5  1  0
  6  5  1  1
  6  7  1  0
  7  8  1  0
  8  9  1  6
  8 10  1  0
 10 11  1  0
 11 12  2  0
 12 13  1  0
 13 14  2  0
 14 15  1  0
 15 16  2  0
 12 17  1  0
 17 18  1  0
 18 19  2  0
 19 20  1  0
 20 21  1  0
 21 22  2  0
 22 23  1  0
 23 24  2  0
 24 25  1  0
 25 26  2  0
 22 27  1  0
 20 28  2  0
 28 29  1  0
 29 30  1  0
 30 31  1  0
 31 32  1  0
 32 33  2  0
  4 34  1  1
 34 35  1  0
 34 36  1  0
 36 37  2  0
 36 38  1  0
 38 39  2  0
 39 40  1  0
 40 41  2  0
 41 42  1  0
 42 43  2  0
  8  3  1  0
 18 10  1  0
 27 19  1  0
 32 28  1  0
 43 38  1  0
 27  6  1  0
 16 11  1  0
 29 17  2  0
 26 21  1  0
M  END
$$$$
