
     RDKit          3D

 43 51  0  0  0  0  0  0  0  0999 V2000
  196.3159  170.2273  150.7794 C   0  0  0  0  0  0  0  0  0  0  0  0
  196.6300  171.1486  151.7343 O   0  0  0  0  0  0  0  0  0  0  0  0
  197.8968  171.1174  152.2602 C   0  0  2  0  0  0  0  0  0  0  0  0
  197.7714  171.0088  153.7765 C   0  0  1  0  0  0  0  0  0  0  0  0
  196.5994  171.9283  154.0833 C   0  0  0  0  0  0  0  0  0  0  0  0
  197.0406  173.3351  153.6993 C   0  0  1  0  0  0  0  0  0  0  0  0
  198.2493  173.3717  153.0954 O   0  0  0  0  0  0  0  0  0  0  0  0
  198.4835  172.5269  152.0146 C   0  0  1  0  0  0  0  0  0  0  0  0
  199.9904  172.4910  151.9091 C   0  0  0  0  0  0  0  0  0  0  0  0
  197.9000  173.0653  150.8139 N   0  0  0  0  0  0  0  0  0  0  0  0
  198.3534  172.8870  149.5332 C   0  0  0  0  0  0  0  0  0  0  0  0
  197.5327  173.5971  148.6524 C   0  0  0  0  0  0  0  0  0  0  0  0
  197.7372  173.5870  147.2967 C   0  0  0  0  0  0  0  0  0  0  0  0
  198.7859  172.8505  146.8025 C   0  0  0  0  0  0  0  0  0  0  0  0
  199.6151  172.1379  147.6365 C   0  0  0  0  0  0  0  0  0  0  0  0
  199.3940  172.1587  149.0042 C   0  0  0  0  0  0  0  0  0  0  0  0
  196.5752  174.2062  149.3936 C   0  0  0  0  0  0  0  0  0  0  0  0
  196.8008  173.8824  150.6864 C   0  0  0  0  0  0  0  0  0  0  0  0
  195.9766  174.3287  151.6867 C   0  0  0  0  0  0  0  0  0  0  0  0
  194.8930  175.1261  151.3647 C   0  0  0  0  0  0  0  0  0  0  0  0
  194.2558  175.4023  152.5452 C   0  0  0  0  0  0  0  0  0  0  0  0
  194.9873  174.7570  153.5238 C   0  0  0  0  0  0  0  0  0  0  0  0
  194.5839  174.8505  154.8347 C   0  0  0  0  0  0  0  0  0  0  0  0
  193.4678  175.5732  155.1924 C   0  0  0  0  0  0  0  0  0  0  0  0
  192.7603  176.2037  154.2009 C   0  0  0  0  0  0  0  0  0  0  0  0
  193.1393  176.1324  152.8525 C   0  0  0  0  0  0  0  0  0  0  0  0
  196.0334  174.1040  153.0099 N   0  0  0  0  0  0  0  0  0  0  0  0
  194.6656  175.4610  150.0190 C   0  0  0  0  0  0  0  0  0  0  0  0
  195.4981  175.0069  149.0320 C   0  0  0  0  0  0  0  0  0  0  0  0
  195.0645  175.4819  147.7264 C   0  0  0  0  0  0  0  0  0  0  0  0
  193.9046  176.2697  147.9620 N   0  0  0  0  0  0  0  0  0  0  0  0
  193.6409  176.2667  149.3785 C   0  0  0  0  0  0  0  0  0  0  0  0
  192.6656  176.8870  149.8704 O   0  0  0  0  0  0  0  0  0  0  0  0
  197.6186  169.6973  154.2829 N   0  0  0  0  0  0  0  0  0  0  0  0
  198.5529  169.2652  155.3724 C   0  0  0  0  0  0  0  0  0  0  0  0
  196.6712  168.7304  153.9120 C   0  0  0  0  0  0  0  0  0  0  0  0
  196.9024  167.5575  153.6293 O   0  0  0  0  0  0  0  0  0  0  0  0
  195.2507  169.1469  153.8538 C   0  0  0  0  0  0  0  0  0  0  0  0
  194.8226  170.3789  154.2808 C   0  0  0  0  0  0  0  0  0  0  0  0
  193.4823  170.7613  154.1961 C   0  0  0  0  0  0  0  0  0  0  0  0
  192.5551  169.8826  153.6690 C   0  0  0  0  0  0  0  0  0  0  0  0
  192.9932  168.6411  153.2407 C   0  0  0  0  0  0  0  0  0  0  0  0
  194.3228  168.2547  153.3222 C   0  0  0  0  0  0  0  0  0  0  0  0
  1  2  1  0
  3  2  1  6
  3  4  1  0
  4  5  1  0
  6  5  1  6
  6  7  1  0
  7  8  1  0
  8  9  1  6
  8 10  1  0
 10 11  1  0
 11 12  2  0
 12 13  1  0
 13 14  2  0
 14 15  1  0
 15 16  2  0
 12 17  1  0
 17 18  1  0
 18 19  2  0
 19 20  1  0
 20 21  1  0
 21 22  2  0
 22 23  1  0
 23 24  2  0
 24 25  1  0
 25 26  2  0
 22 27  1  0
 20 28  2  0
 28 29  1  0
 29 30  1  0
 30 31  1  0
 31 32  1  0
 32 33  2  0
  4 34  1  6
 34 35  1  0
 34 36  1  0
 36 37  2  0
 36 38  1  0
 38 39  2  0
 39 40  1  0
 40 41  2  0
 41 42  1  0
 42 43  2  0
  8  3  1  0
 18 10  1  0
 27 19  1  0
 32 28  1  0
 43 38  1  0
 27  6  1  0
 16 11  1  0
 29 17  2  0
 26 21  1  0
M  END
$$$$
