
     RDKit          3D

 43 51  0  0  0  0  0  0  0  0999 V2000
  116.7510  165.5086  145.4849 C   0  0  0  0  0  0  0  0  0  0  0  0
  117.3818  166.6102  144.9870 O   0  0  0  0  0  0  0  0  0  0  0  0
  118.4653  167.0924  145.6768 C   0  0  2  0  0  0  0  0  0  0  0  0
  118.2797  168.5967  145.8475 C   0  0  1  0  0  0  0  0  0  0  0  0
  117.6980  169.0177  144.5067 C   0  0  0  0  0  0  0  0  0  0  0  0
  118.7733  168.7434  143.4629 C   0  0  1  0  0  0  0  0  0  0  0  0
  119.8566  168.1082  143.9633 O   0  0  0  0  0  0  0  0  0  0  0  0
  119.6670  166.9519  144.7138 C   0  0  1  0  0  0  0  0  0  0  0  0
  120.9678  166.7975  145.4670 C   0  0  0  0  0  0  0  0  0  0  0  0
  119.4375  165.8206  143.8537 N   0  0  0  0  0  0  0  0  0  0  0  0
  119.7667  164.5161  144.1131 C   0  0  0  0  0  0  0  0  0  0  0  0
  119.4085  163.7255  143.0175 C   0  0  0  0  0  0  0  0  0  0  0  0
  119.6031  162.3684  143.0029 C   0  0  0  0  0  0  0  0  0  0  0  0
  120.1689  161.7804  144.1078 C   0  0  0  0  0  0  0  0  0  0  0  0
  120.5340  162.5239  145.2054 C   0  0  0  0  0  0  0  0  0  0  0  0
  120.3299  163.8944  145.2036 C   0  0  0  0  0  0  0  0  0  0  0  0
  118.8566  164.5454  142.0900 C   0  0  0  0  0  0  0  0  0  0  0  0
  118.8764  165.7980  142.5981 C   0  0  0  0  0  0  0  0  0  0  0  0
  118.3578  166.8578  141.9003 C   0  0  0  0  0  0  0  0  0  0  0  0
  117.8038  166.6393  140.6517 C   0  0  0  0  0  0  0  0  0  0  0  0
  117.3631  167.8582  140.2090 C   0  0  0  0  0  0  0  0  0  0  0  0
  117.6735  168.7545  141.2138 C   0  0  0  0  0  0  0  0  0  0  0  0
  117.3462  170.0803  141.0552 C   0  0  0  0  0  0  0  0  0  0  0  0
  116.7170  170.5332  139.9172 C   0  0  0  0  0  0  0  0  0  0  0  0
  116.4207  169.6220  138.9358 C   0  0  0  0  0  0  0  0  0  0  0  0
  116.7379  168.2615  139.0598 C   0  0  0  0  0  0  0  0  0  0  0  0
  118.2778  168.1543  142.2429 N   0  0  0  0  0  0  0  0  0  0  0  0
  117.7887  165.3351  140.1284 C   0  0  0  0  0  0  0  0  0  0  0  0
  118.3105  164.2876  140.8381 C   0  0  0  0  0  0  0  0  0  0  0  0
  118.1826  163.0419  140.0964 C   0  0  0  0  0  0  0  0  0  0  0  0
  117.5486  163.3801  138.8696 N   0  0  0  0  0  0  0  0  0  0  0  0
  117.2950  164.7984  138.8724 C   0  0  0  0  0  0  0  0  0  0  0  0
  116.7369  165.3717  137.9040 O   0  0  0  0  0  0  0  0  0  0  0  0
  117.5007  168.9922  146.9595 N   0  0  0  0  0  0  0  0  0  0  0  0
  116.9370  170.3810  146.9480 C   0  0  0  0  0  0  0  0  0  0  0  0
  117.1544  168.2336  148.0885 C   0  0  0  0  0  0  0  0  0  0  0  0
  116.0277  167.8438  148.3844 O   0  0  0  0  0  0  0  0  0  0  0  0
  118.2408  167.8553  149.0220 C   0  0  0  0  0  0  0  0  0  0  0  0
  118.8460  168.7594  149.8586 C   0  0  0  0  0  0  0  0  0  0  0  0
  119.8527  168.3782  150.7480 C   0  0  0  0  0  0  0  0  0  0  0  0
  120.2565  167.0575  150.7946 C   0  0  0  0  0  0  0  0  0  0  0  0
  119.6426  166.1506  149.9476 C   0  0  0  0  0  0  0  0  0  0  0  0
  118.6425  166.5224  149.0616 C   0  0  0  0  0  0  0  0  0  0  0  0
  1  2  1  0
  3  2  1  6
  3  4  1  0
  4  5  1  0
  6  5  1  1
  6  7  1  0
  7  8  1  0
  8  9  1  1
  8 10  1  0
 10 11  1  0
 11 12  2  0
 12 13  1  0
 13 14  2  0
 14 15  1  0
 15 16  2  0
 12 17  1  0
 17 18  1  0
 18 19  2  0
 19 20  1  0
 20 21  1  0
 21 22  2  0
 22 23  1  0
 23 24  2  0
 24 25  1  0
 25 26  2  0
 22 27  1  0
 20 28  2  0
 28 29  1  0
 29 30  1  0
 30 31  1  0
 31 32  1  0
 32 33  2  0
  4 34  1  1
 34 35  1  0
 34 36  1  0
 36 37  2  0
 36 38  1  0
 38 39  2  0
 39 40  1  0
 40 41  2  0
 41 42  1  0
 42 43  2  0
  8  3  1  0
 18 10  1  0
 27 19  1  0
 32 28  1  0
 43 38  1  0
 27  6  1  0
 16 11  1  0
 29 17  2  0
 26 21  1  0
M  END
$$$$
