
     RDKit          3D

 43 51  0  0  0  0  0  0  0  0999 V2000
  177.3610  164.1228  110.9470 C   0  0  0  0  0  0  0  0  0  0  0  0
  176.5345  163.5858  110.0047 O   0  0  0  0  0  0  0  0  0  0  0  0
  176.5081  162.2196  109.8817 C   0  0  2  0  0  0  0  0  0  0  0  0
  176.9037  161.8710  108.4504 C   0  0  1  0  0  0  0  0  0  0  0  0
  176.2025  162.9474  107.6364 C   0  0  0  0  0  0  0  0  0  0  0  0
  174.7068  162.7299  107.8282 C   0  0  1  0  0  0  0  0  0  0  0  0
  174.4166  161.7667  108.7311 O   0  0  0  0  0  0  0  0  0  0  0  0
  175.0175  161.8218  109.9851 C   0  0  1  0  0  0  0  0  0  0  0  0
  174.8525  160.4191  110.5222 C   0  0  0  0  0  0  0  0  0  0  0  0
  174.3445  162.7743  110.8288 N   0  0  0  0  0  0  0  0  0  0  0  0
  174.2322  162.7220  112.1935 C   0  0  0  0  0  0  0  0  0  0  0  0
  173.4781  163.8131  112.6344 C   0  0  0  0  0  0  0  0  0  0  0  0
  173.2179  164.0305  113.9629 C   0  0  0  0  0  0  0  0  0  0  0  0
  173.7215  163.1393  114.8787 C   0  0  0  0  0  0  0  0  0  0  0  0
  174.4686  162.0543  114.4845 C   0  0  0  0  0  0  0  0  0  0  0  0
  174.7225  161.8497  113.1377 C   0  0  0  0  0  0  0  0  0  0  0  0
  173.1327  164.5348  111.5403 C   0  0  0  0  0  0  0  0  0  0  0  0
  173.6558  163.9074  110.4632 C   0  0  0  0  0  0  0  0  0  0  0  0
  173.5001  164.4138  109.1989 C   0  0  0  0  0  0  0  0  0  0  0  0
  172.7935  165.5901  109.0238 C   0  0  0  0  0  0  0  0  0  0  0  0
  172.8142  165.8534  107.6799 C   0  0  0  0  0  0  0  0  0  0  0  0
  173.5335  164.8212  107.1085 C   0  0  0  0  0  0  0  0  0  0  0  0
  173.7280  164.8117  105.7476 C   0  0  0  0  0  0  0  0  0  0  0  0
  173.2212  165.8076  104.9430 C   0  0  0  0  0  0  0  0  0  0  0  0
  172.5111  166.8200  105.5364 C   0  0  0  0  0  0  0  0  0  0  0  0
  172.2911  166.8655  106.9208 C   0  0  0  0  0  0  0  0  0  0  0  0
  173.9523  163.9436  108.0245 N   0  0  0  0  0  0  0  0  0  0  0  0
  172.2502  166.2358  110.1475 C   0  0  0  0  0  0  0  0  0  0  0  0
  172.4148  165.7171  111.4034 C   0  0  0  0  0  0  0  0  0  0  0  0
  171.7668  166.5553  112.4012 C   0  0  0  0  0  0  0  0  0  0  0  0
  171.1798  167.6340  111.6848 N   0  0  0  0  0  0  0  0  0  0  0  0
  171.4708  167.4535  110.2853 C   0  0  0  0  0  0  0  0  0  0  0  0
  171.0714  168.2686  109.4169 O   0  0  0  0  0  0  0  0  0  0  0  0
  178.2940  161.7829  108.2067 N   0  0  0  0  0  0  0  0  0  0  0  0
  179.2160  162.1685  109.3238 C   0  0  0  0  0  0  0  0  0  0  0  0
  178.9433  161.3488  107.0405 C   0  0  0  0  0  0  0  0  0  0  0  0
  179.6164  160.3283  106.9206 O   0  0  0  0  0  0  0  0  0  0  0  0
  178.8119  162.1890  105.8274 C   0  0  0  0  0  0  0  0  0  0  0  0
  179.0266  163.5445  105.8393 C   0  0  0  0  0  0  0  0  0  0  0  0
  178.9203  164.3156  104.6799 C   0  0  0  0  0  0  0  0  0  0  0  0
  178.5914  163.7062  103.4842 C   0  0  0  0  0  0  0  0  0  0  0  0
  178.3753  162.3387  103.4791 C   0  0  0  0  0  0  0  0  0  0  0  0
  178.4788  161.5669  104.6268 C   0  0  0  0  0  0  0  0  0  0  0  0
  1  2  1  0
  3  2  1  6
  3  4  1  0
  4  5  1  0
  6  5  1  1
  6  7  1  0
  7  8  1  0
  8  9  1  1
  8 10  1  0
 10 11  1  0
 11 12  2  0
 12 13  1  0
 13 14  2  0
 14 15  1  0
 15 16  2  0
 12 17  1  0
 17 18  1  0
 18 19  2  0
 19 20  1  0
 20 21  1  0
 21 22  2  0
 22 23  1  0
 23 24  2  0
 24 25  1  0
 25 26  2  0
 22 27  1  0
 20 28  2  0
 28 29  1  0
 29 30  1  0
 30 31  1  0
 31 32  1  0
 32 33  2  0
  4 34  1  1
 34 35  1  0
 34 36  1  0
 36 37  2  0
 36 38  1  0
 38 39  2  0
 39 40  1  0
 40 41  2  0
 41 42  1  0
 42 43  2  0
  8  3  1  0
 18 10  1  0
 27 19  1  0
 32 28  1  0
 43 38  1  0
 27  6  1  0
 16 11  1  0
 29 17  2  0
 26 21  1  0
M  END
$$$$
