
     RDKit          3D

 43 51  0  0  0  0  0  0  0  0999 V2000
  192.0639  161.5944  124.0012 C   0  0  0  0  0  0  0  0  0  0  0  0
  191.5327  161.1320  122.8336 O   0  0  0  0  0  0  0  0  0  0  0  0
  190.6760  161.9575  122.1502 C   0  0  2  0  0  0  0  0  0  0  0  0
  189.2550  161.6319  122.5990 C   0  0  1  0  0  0  0  0  0  0  0  0
  189.2788  160.1157  122.7161 C   0  0  0  0  0  0  0  0  0  0  0  0
  189.5147  159.5765  121.3109 C   0  0  1  0  0  0  0  0  0  0  0  0
  189.7590  160.5443  120.3994 O   0  0  0  0  0  0  0  0  0  0  0  0
  190.7385  161.4931  120.6766 C   0  0  1  0  0  0  0  0  0  0  0  0
  190.4218  162.6224  119.7240 C   0  0  0  0  0  0  0  0  0  0  0  0
  192.0499  160.9590  120.4177 N   0  0  0  0  0  0  0  0  0  0  0  0
  193.1557  161.6635  120.0192 C   0  0  0  0  0  0  0  0  0  0  0  0
  194.2244  160.7800  119.8438 C   0  0  0  0  0  0  0  0  0  0  0  0
  195.4700  161.2087  119.4638 C   0  0  0  0  0  0  0  0  0  0  0  0
  195.6591  162.5526  119.2528 C   0  0  0  0  0  0  0  0  0  0  0  0
  194.6331  163.4534  119.4159 C   0  0  0  0  0  0  0  0  0  0  0  0
  193.3804  163.0031  119.8007 C   0  0  0  0  0  0  0  0  0  0  0  0
  193.7738  159.5362  120.1388 C   0  0  0  0  0  0  0  0  0  0  0  0
  192.4715  159.6514  120.4826 C   0  0  0  0  0  0  0  0  0  0  0  0
  191.7362  158.5591  120.8636 C   0  0  0  0  0  0  0  0  0  0  0  0
  192.3404  157.3151  120.8963 C   0  0  0  0  0  0  0  0  0  0  0  0
  191.3812  156.4338  121.3196 C   0  0  0  0  0  0  0  0  0  0  0  0
  190.2428  157.1903  121.5220 C   0  0  0  0  0  0  0  0  0  0  0  0
  189.0948  156.5721  121.9578 C   0  0  0  0  0  0  0  0  0  0  0  0
  189.0557  155.2165  122.1960 C   0  0  0  0  0  0  0  0  0  0  0  0
  190.2000  154.4897  121.9870 C   0  0  0  0  0  0  0  0  0  0  0  0
  191.3906  155.0832  121.5431 C   0  0  0  0  0  0  0  0  0  0  0  0
  190.4509  158.4809  121.2465 N   0  0  0  0  0  0  0  0  0  0  0  0
  193.6939  157.2020  120.5353 C   0  0  0  0  0  0  0  0  0  0  0  0
  194.4142  158.3027  120.1574 C   0  0  0  0  0  0  0  0  0  0  0  0
  195.7852  157.9399  119.8306 C   0  0  0  0  0  0  0  0  0  0  0  0
  195.8751  156.5343  120.0250 N   0  0  0  0  0  0  0  0  0  0  0  0
  194.5876  156.0594  120.4639 C   0  0  0  0  0  0  0  0  0  0  0  0
  194.3813  154.8459  120.7146 O   0  0  0  0  0  0  0  0  0  0  0  0
  188.8207  162.2905  123.7727 N   0  0  0  0  0  0  0  0  0  0  0  0
  188.9399  161.5440  125.0669 C   0  0  0  0  0  0  0  0  0  0  0  0
  188.3038  163.5896  123.8963 C   0  0  0  0  0  0  0  0  0  0  0  0
  188.2761  164.2661  124.9213 O   0  0  0  0  0  0  0  0  0  0  0  0
  187.7358  164.2217  122.6828 C   0  0  0  0  0  0  0  0  0  0  0  0
  188.4931  164.9639  121.8115 C   0  0  0  0  0  0  0  0  0  0  0  0
  187.9436  165.5325  120.6606 C   0  0  0  0  0  0  0  0  0  0  0  0
  186.6027  165.3476  120.3829 C   0  0  0  0  0  0  0  0  0  0  0  0
  185.8441  164.5986  121.2661 C   0  0  0  0  0  0  0  0  0  0  0  0
  186.3833  164.0314  122.4112 C   0  0  0  0  0  0  0  0  0  0  0  0
  1  2  1  0
  3  2  1  1
  3  4  1  0
  4  5  1  0
  6  5  1  1
  6  7  1  0
  7  8  1  0
  8  9  1  6
  8 10  1  0
 10 11  1  0
 11 12  2  0
 12 13  1  0
 13 14  2  0
 14 15  1  0
 15 16  2  0
 12 17  1  0
 17 18  1  0
 18 19  2  0
 19 20  1  0
 20 21  1  0
 21 22  2  0
 22 23  1  0
 23 24  2  0
 24 25  1  0
 25 26  2  0
 22 27  1  0
 20 28  2  0
 28 29  1  0
 29 30  1  0
 30 31  1  0
 31 32  1  0
 32 33  2  0
  4 34  1  1
 34 35  1  0
 34 36  1  0
 36 37  2  0
 36 38  1  0
 38 39  2  0
 39 40  1  0
 40 41  2  0
 41 42  1  0
 42 43  2  0
  8  3  1  0
 18 10  1  0
 27 19  1  0
 32 28  1  0
 43 38  1  0
 27  6  1  0
 16 11  1  0
 29 17  2  0
 26 21  1  0
M  END
$$$$
