
     RDKit          3D

 43 51  0  0  0  0  0  0  0  0999 V2000
  131.9684  139.6916  132.4691 C   0  0  0  0  0  0  0  0  0  0  0  0
  130.7224  139.4599  132.9723 O   0  0  0  0  0  0  0  0  0  0  0  0
  130.6315  138.9229  134.2315 C   0  0  2  0  0  0  0  0  0  0  0  0
  130.2921  137.4430  134.0856 C   0  0  1  0  0  0  0  0  0  0  0  0
  129.2939  137.4389  132.9380 C   0  0  0  0  0  0  0  0  0  0  0  0
  128.0708  138.2055  133.4253 C   0  0  1  0  0  0  0  0  0  0  0  0
  128.2415  138.7703  134.6415 O   0  0  0  0  0  0  0  0  0  0  0  0
  129.3694  139.5549  134.8627 C   0  0  1  0  0  0  0  0  0  0  0  0
  129.4723  139.6160  136.3690 C   0  0  0  0  0  0  0  0  0  0  0  0
  129.1882  140.8714  134.3093 N   0  0  0  0  0  0  0  0  0  0  0  0
  129.7420  142.0362  134.7719 C   0  0  0  0  0  0  0  0  0  0  0  0
  129.2978  143.1010  133.9829 C   0  0  0  0  0  0  0  0  0  0  0  0
  129.7062  144.3913  134.2025 C   0  0  0  0  0  0  0  0  0  0  0  0
  130.5806  144.6301  135.2344 C   0  0  0  0  0  0  0  0  0  0  0  0
  131.0411  143.6092  136.0323 C   0  0  0  0  0  0  0  0  0  0  0  0
  130.6185  142.3109  135.7962 C   0  0  0  0  0  0  0  0  0  0  0  0
  128.4758  142.5872  133.0355 C   0  0  0  0  0  0  0  0  0  0  0  0
  128.4159  141.2518  133.2366 C   0  0  0  0  0  0  0  0  0  0  0  0
  127.6777  140.4403  132.4146 C   0  0  0  0  0  0  0  0  0  0  0  0
  126.9811  141.0008  131.3590 C   0  0  0  0  0  0  0  0  0  0  0  0
  126.3581  139.9637  130.7169 C   0  0  0  0  0  0  0  0  0  0  0  0
  126.7097  138.8259  131.4176 C   0  0  0  0  0  0  0  0  0  0  0  0
  126.2295  137.6066  131.0021 C   0  0  0  0  0  0  0  0  0  0  0  0
  125.4061  137.4957  129.9040 C   0  0  0  0  0  0  0  0  0  0  0  0
  125.0731  138.6411  129.2270 C   0  0  0  0  0  0  0  0  0  0  0  0
  125.5423  139.9033  129.6192 C   0  0  0  0  0  0  0  0  0  0  0  0
  127.5099  139.1078  132.4495 N   0  0  0  0  0  0  0  0  0  0  0  0
  127.0457  142.3900  131.1572 C   0  0  0  0  0  0  0  0  0  0  0  0
  127.7876  143.1864  131.9871 C   0  0  0  0  0  0  0  0  0  0  0  0
  127.7013  144.5819  131.5827 C   0  0  0  0  0  0  0  0  0  0  0  0
  126.8502  144.6075  130.4442 N   0  0  0  0  0  0  0  0  0  0  0  0
  126.4351  143.2565  130.1644 C   0  0  0  0  0  0  0  0  0  0  0  0
  125.6743  142.9848  129.2024 O   0  0  0  0  0  0  0  0  0  0  0  0
  131.3957  136.5812  133.8879 N   0  0  0  0  0  0  0  0  0  0  0  0
  131.5783  135.9967  132.5198 C   0  0  0  0  0  0  0  0  0  0  0  0
  132.3818  136.2098  134.8152 C   0  0  0  0  0  0  0  0  0  0  0  0
  133.2158  135.3193  134.6715 O   0  0  0  0  0  0  0  0  0  0  0  0
  132.4382  136.9552  136.0942 C   0  0  0  0  0  0  0  0  0  0  0  0
  133.6190  137.3681  136.6586 C   0  0  0  0  0  0  0  0  0  0  0  0
  133.6496  138.0900  137.8535 C   0  0  0  0  0  0  0  0  0  0  0  0
  132.4642  138.4021  138.4915 C   0  0  0  0  0  0  0  0  0  0  0  0
  131.2766  137.9819  137.9174 C   0  0  0  0  0  0  0  0  0  0  0  0
  131.2389  137.2643  136.7311 C   0  0  0  0  0  0  0  0  0  0  0  0
  1  2  1  0
  3  2  1  6
  3  4  1  0
  4  5  1  0
  6  5  1  6
  6  7  1  0
  7  8  1  0
  8  9  1  1
  8 10  1  0
 10 11  1  0
 11 12  2  0
 12 13  1  0
 13 14  2  0
 14 15  1  0
 15 16  2  0
 12 17  1  0
 17 18  1  0
 18 19  2  0
 19 20  1  0
 20 21  1  0
 21 22  2  0
 22 23  1  0
 23 24  2  0
 24 25  1  0
 25 26  2  0
 22 27  1  0
 20 28  2  0
 28 29  1  0
 29 30  1  0
 30 31  1  0
 31 32  1  0
 32 33  2  0
  4 34  1  6
 34 35  1  0
 34 36  1  0
 36 37  2  0
 36 38  1  0
 38 39  2  0
 39 40  1  0
 40 41  2  0
 41 42  1  0
 42 43  2  0
  8  3  1  0
 18 10  1  0
 27 19  1  0
 32 28  1  0
 43 38  1  0
 27  6  1  0
 16 11  1  0
 29 17  2  0
 26 21  1  0
M  END
$$$$
