
     RDKit          3D

 43 51  0  0  0  0  0  0  0  0999 V2000
  147.8094  178.4111  153.9441 C   0  0  0  0  0  0  0  0  0  0  0  0
  148.2493  177.1967  153.5071 O   0  0  0  0  0  0  0  0  0  0  0  0
  148.7570  176.3277  154.4395 C   0  0  2  0  0  0  0  0  0  0  0  0
  150.2785  176.3722  154.3410 C   0  0  1  0  0  0  0  0  0  0  0  0
  150.5157  176.4573  152.8411 C   0  0  0  0  0  0  0  0  0  0  0  0
  149.9958  175.1548  152.2459 C   0  0  1  0  0  0  0  0  0  0  0  0
  149.3733  174.3639  153.1483 O   0  0  0  0  0  0  0  0  0  0  0  0
  148.3726  174.9145  153.9432 C   0  0  1  0  0  0  0  0  0  0  0  0
  148.2486  173.9375  155.0892 C   0  0  0  0  0  0  0  0  0  0  0  0
  147.1357  175.0042  153.2123 N   0  0  0  0  0  0  0  0  0  0  0  0
  145.8706  174.9322  153.7339 C   0  0  0  0  0  0  0  0  0  0  0  0
  144.9397  175.0295  152.6958 C   0  0  0  0  0  0  0  0  0  0  0  0
  143.5880  175.0065  152.9241 C   0  0  0  0  0  0  0  0  0  0  0  0
  143.1491  174.8842  154.2198 C   0  0  0  0  0  0  0  0  0  0  0  0
  144.0335  174.7869  155.2682 C   0  0  0  0  0  0  0  0  0  0  0  0
  145.3964  174.8120  155.0198 C   0  0  0  0  0  0  0  0  0  0  0  0
  145.6350  175.1650  151.5402 C   0  0  0  0  0  0  0  0  0  0  0  0
  146.9489  175.1501  151.8574 C   0  0  0  0  0  0  0  0  0  0  0  0
  147.9153  175.2957  150.8962 C   0  0  0  0  0  0  0  0  0  0  0  0
  147.5365  175.4610  149.5760 C   0  0  0  0  0  0  0  0  0  0  0  0
  148.6954  175.5922  148.8580 C   0  0  0  0  0  0  0  0  0  0  0  0
  149.7190  175.4993  149.7815 C   0  0  0  0  0  0  0  0  0  0  0  0
  151.0213  175.5979  149.3523 C   0  0  0  0  0  0  0  0  0  0  0  0
  151.3266  175.7864  148.0229 C   0  0  0  0  0  0  0  0  0  0  0  0
  150.2912  175.8750  147.1277 C   0  0  0  0  0  0  0  0  0  0  0  0
  148.9498  175.7795  147.5259 C   0  0  0  0  0  0  0  0  0  0  0  0
  149.2527  175.3187  151.0204 N   0  0  0  0  0  0  0  0  0  0  0  0
  146.1689  175.4731  149.2528 C   0  0  0  0  0  0  0  0  0  0  0  0
  145.2163  175.3266  150.2247 C   0  0  0  0  0  0  0  0  0  0  0  0
  143.8788  175.3707  149.6527 C   0  0  0  0  0  0  0  0  0  0  0  0
  144.0571  175.5504  148.2537 N   0  0  0  0  0  0  0  0  0  0  0  0
  145.4714  175.6178  147.9872 C   0  0  0  0  0  0  0  0  0  0  0  0
  145.9177  175.7767  146.8238 O   0  0  0  0  0  0  0  0  0  0  0  0
  150.9071  177.4013  155.0797 N   0  0  0  0  0  0  0  0  0  0  0  0
  151.2498  178.6644  154.3492 C   0  0  0  0  0  0  0  0  0  0  0  0
  151.2389  177.4101  156.4435 C   0  0  0  0  0  0  0  0  0  0  0  0
  151.9912  176.6236  157.0134 O   0  0  0  0  0  0  0  0  0  0  0  0
  150.6350  178.4644  157.2911 C   0  0  0  0  0  0  0  0  0  0  0  0
  150.3910  179.7342  156.8311 C   0  0  0  0  0  0  0  0  0  0  0  0
  149.7995  180.7075  157.6390 C   0  0  0  0  0  0  0  0  0  0  0  0
  149.4463  180.3927  158.9373 C   0  0  0  0  0  0  0  0  0  0  0  0
  149.6958  179.1103  159.3954 C   0  0  0  0  0  0  0  0  0  0  0  0
  150.2832  178.1389  158.5986 C   0  0  0  0  0  0  0  0  0  0  0  0
  1  2  1  0
  3  2  1  6
  3  4  1  0
  4  5  1  0
  6  5  1  1
  6  7  1  0
  7  8  1  0
  8  9  1  1
  8 10  1  0
 10 11  1  0
 11 12  2  0
 12 13  1  0
 13 14  2  0
 14 15  1  0
 15 16  2  0
 12 17  1  0
 17 18  1  0
 18 19  2  0
 19 20  1  0
 20 21  1  0
 21 22  2  0
 22 23  1  0
 23 24  2  0
 24 25  1  0
 25 26  2  0
 22 27  1  0
 20 28  2  0
 28 29  1  0
 29 30  1  0
 30 31  1  0
 31 32  1  0
 32 33  2  0
  4 34  1  1
 34 35  1  0
 34 36  1  0
 36 37  2  0
 36 38  1  0
 38 39  2  0
 39 40  1  0
 40 41  2  0
 41 42  1  0
 42 43  2  0
  8  3  1  0
 18 10  1  0
 27 19  1  0
 32 28  1  0
 43 38  1  0
 27  6  1  0
 16 11  1  0
 29 17  2  0
 26 21  1  0
M  END
$$$$
