
     RDKit          3D

 33 38  0  0  0  0  0  0  0  0999 V2000
  173.4229  164.8586  111.2493 C   0  0  2  0  0  0  0  0  0  0  0  0
  172.3924  165.6578  110.5746 C   0  0  0  0  0  0  0  0  0  0  0  0
  173.2674  166.7901  110.0064 C   0  0  1  0  0  0  0  0  0  0  0  0
  173.7735  167.5699  111.0327 O   0  0  0  0  0  0  0  0  0  0  0  0
  175.0276  167.9017  110.5867 C   0  0  2  0  0  0  0  0  0  0  0  0
  174.8598  168.9955  109.5252 C   0  0  0  0  0  0  0  0  0  0  0  0
  175.6043  166.7754  110.0533 O   0  0  0  0  0  0  0  0  0  0  0  0
  174.5094  166.0389  109.5431 C   0  0  2  0  0  0  0  0  0  0  0  0
  174.6335  166.0429  108.0768 C   0  0  0  0  0  0  0  0  0  0  0  0
  175.8676  166.3442  107.3013 C   0  0  0  0  0  0  0  0  0  0  0  0
  173.6066  165.7617  107.4252 O   0  0  0  0  0  0  0  0  0  0  0  0
  174.4826  164.6842  110.1488 C   0  0  2  0  0  0  0  0  0  0  0  0
  174.1815  163.5536  109.2424 C   0  0  0  0  0  0  0  0  0  0  0  0
  175.7441  164.3998  110.9641 C   0  0  0  0  0  0  0  0  0  0  0  0
  175.5968  163.1938  111.8302 C   0  0  0  0  0  0  0  0  0  0  0  0
  174.3274  163.0840  112.5824 C   0  0  1  0  0  0  0  0  0  0  0  0
  173.1027  163.5200  111.7629 C   0  0  1  0  0  0  0  0  0  0  0  0
  171.9392  163.4947  112.7310 C   0  0  0  0  0  0  0  0  0  0  0  0
  171.5830  162.0633  112.9814 C   0  0  0  0  0  0  0  0  0  0  0  0
  172.7796  161.4021  113.5789 C   0  0  0  0  0  0  0  0  0  0  0  0
  172.6129  160.4956  114.5234 C   0  0  0  0  0  0  0  0  0  0  0  0
  173.7097  159.7949  115.1683 C   0  0  0  0  0  0  0  0  0  0  0  0
  173.4757  158.8103  115.9436 O   0  0  0  0  0  0  0  0  0  0  0  0
  175.0978  160.2119  114.9351 C   0  0  0  0  0  0  0  0  0  0  0  0
  175.1291  161.6160  114.3476 C   0  0  0  0  0  0  0  0  0  0  0  0
  174.1675  161.7176  113.1575 C   0  0  2  0  0  0  0  0  0  0  0  0
  174.5891  160.6254  112.1914 C   0  0  0  0  0  0  0  0  0  0  0  0
  175.9109  168.4219  111.6509 C   0  0  0  0  0  0  0  0  0  0  0  0
  175.4579  168.6830  112.9286 C   0  0  0  0  0  0  0  0  0  0  0  0
  176.3447  169.1739  113.8889 C   0  0  0  0  0  0  0  0  0  0  0  0
  177.6717  169.4108  113.6065 C   0  0  0  0  0  0  0  0  0  0  0  0
  178.1193  169.1470  112.3237 C   0  0  0  0  0  0  0  0  0  0  0  0
  177.2428  168.6672  111.3936 C   0  0  0  0  0  0  0  0  0  0  0  0
  1  2  1  6
  3  2  1  1
  3  4  1  0
  4  5  1  0
  5  6  1  6
  5  7  1  0
  7  8  1  0
  8  9  1  6
  9 10  1  0
  9 11  2  0
  8 12  1  0
 12 13  1  6
 12 14  1  0
 14 15  1  0
 16 15  1  6
 16 17  1  0
 17 18  1  1
 18 19  1  0
 19 20  1  0
 20 21  2  0
 21 22  1  0
 22 23  2  0
 22 24  1  0
 24 25  1  0
 25 26  1  0
 26 27  1  6
  5 28  1  0
 28 29  2  0
 29 30  1  0
 30 31  2  0
 31 32  1  0
 32 33  2  0
 12  1  1  0
 26 16  1  0
 33 28  1  0
 17  1  1  0
 26 20  1  0
  8  3  1  0
M  END
$$$$
