
     RDKit          3D

 33 38  0  0  0  0  0  0  0  0999 V2000
  205.2226  131.4783  134.3529 C   0  0  2  0  0  0  0  0  0  0  0  0
  204.0163  130.6506  134.4765 C   0  0  0  0  0  0  0  0  0  0  0  0
  203.0603  131.6726  135.1186 C   0  0  1  0  0  0  0  0  0  0  0  0
  203.4730  131.9771  136.4049 O   0  0  0  0  0  0  0  0  0  0  0  0
  203.1725  133.3102  136.5244 C   0  0  2  0  0  0  0  0  0  0  0  0
  201.6575  133.4193  136.7347 C   0  0  0  0  0  0  0  0  0  0  0  0
  203.5609  133.9421  135.3688 O   0  0  0  0  0  0  0  0  0  0  0  0
  203.4039  132.9536  134.3688 C   0  0  2  0  0  0  0  0  0  0  0  0
  202.2984  133.3905  133.5013 C   0  0  0  0  0  0  0  0  0  0  0  0
  202.4207  134.2359  132.2824 C   0  0  0  0  0  0  0  0  0  0  0  0
  201.1523  133.0105  133.8172 O   0  0  0  0  0  0  0  0  0  0  0  0
  204.6894  132.7422  133.6579 C   0  0  2  0  0  0  0  0  0  0  0  0
  204.6226  132.5977  132.1864 C   0  0  0  0  0  0  0  0  0  0  0  0
  205.7354  133.7860  134.0497 C   0  0  0  0  0  0  0  0  0  0  0  0
  207.1070  133.4069  133.6013 C   0  0  0  0  0  0  0  0  0  0  0  0
  207.5047  132.0019  133.8406 C   0  0  1  0  0  0  0  0  0  0  0  0
  206.3704  131.0010  133.5700 C   0  0  1  0  0  0  0  0  0  0  0  0
  206.9032  129.6564  134.0167 C   0  0  0  0  0  0  0  0  0  0  0  0
  207.8982  129.1969  132.9982 C   0  0  0  0  0  0  0  0  0  0  0  0
  208.9935  130.2089  132.9538 C   0  0  0  0  0  0  0  0  0  0  0  0
  210.2393  129.8062  132.7881 C   0  0  0  0  0  0  0  0  0  0  0  0
  211.3757  130.7091  132.7311 C   0  0  0  0  0  0  0  0  0  0  0  0
  212.5258  130.2739  132.3947 O   0  0  0  0  0  0  0  0  0  0  0  0
  211.2130  132.1306  133.0597 C   0  0  0  0  0  0  0  0  0  0  0  0
  209.9122  132.3446  133.8210 C   0  0  0  0  0  0  0  0  0  0  0  0
  208.7480  131.6666  133.0886 C   0  0  2  0  0  0  0  0  0  0  0  0
  208.7528  132.2416  131.6839 C   0  0  0  0  0  0  0  0  0  0  0  0
  203.8459  133.9641  137.6656 C   0  0  0  0  0  0  0  0  0  0  0  0
  204.5994  133.2606  138.5838 C   0  0  0  0  0  0  0  0  0  0  0  0
  205.2104  133.9388  139.6404 C   0  0  0  0  0  0  0  0  0  0  0  0
  205.0884  135.3010  139.8037 C   0  0  0  0  0  0  0  0  0  0  0  0
  204.3315  136.0002  138.8797 C   0  0  0  0  0  0  0  0  0  0  0  0
  203.7392  135.3258  137.8511 C   0  0  0  0  0  0  0  0  0  0  0  0
  1  2  1  6
  3  2  1  6
  3  4  1  0
  4  5  1  0
  5  6  1  1
  5  7  1  0
  7  8  1  0
  8  9  1  6
  9 10  1  0
  9 11  2  0
  8 12  1  0
 12 13  1  6
 12 14  1  0
 14 15  1  0
 16 15  1  6
 16 17  1  0
 17 18  1  1
 18 19  1  0
 19 20  1  0
 20 21  2  0
 21 22  1  0
 22 23  2  0
 22 24  1  0
 24 25  1  0
 25 26  1  0
 26 27  1  6
  5 28  1  0
 28 29  2  0
 29 30  1  0
 30 31  2  0
 31 32  1  0
 32 33  2  0
 12  1  1  0
 26 16  1  0
 33 28  1  0
 17  1  1  0
 26 20  1  0
  8  3  1  0
M  END
$$$$
