
     RDKit          3D

 33 38  0  0  0  0  0  0  0  0999 V2000
  120.7300  147.7574  146.5527 C   0  0  2  0  0  0  0  0  0  0  0  0
  119.7149  146.7451  146.8701 C   0  0  0  0  0  0  0  0  0  0  0  0
  119.7862  146.7738  148.4078 C   0  0  1  0  0  0  0  0  0  0  0  0
  121.0022  146.2748  148.8438 O   0  0  0  0  0  0  0  0  0  0  0  0
  121.2863  147.0507  149.9388 C   0  0  2  0  0  0  0  0  0  0  0  0
  120.4050  146.5537  151.0910 C   0  0  0  0  0  0  0  0  0  0  0  0
  121.0028  148.3567  149.6235 O   0  0  0  0  0  0  0  0  0  0  0  0
  119.9371  148.2619  148.6978 C   0  0  2  0  0  0  0  0  0  0  0  0
  118.7428  148.8123  149.3582 C   0  0  0  0  0  0  0  0  0  0  0  0
  118.4720  148.8151  150.8218 C   0  0  0  0  0  0  0  0  0  0  0  0
  117.8800  149.3294  148.6192 O   0  0  0  0  0  0  0  0  0  0  0  0
  120.3024  148.9446  147.4316 C   0  0  2  0  0  0  0  0  0  0  0  0
  119.2562  149.7762  146.7957 C   0  0  0  0  0  0  0  0  0  0  0  0
  121.6078  149.7291  147.5636 C   0  0  0  0  0  0  0  0  0  0  0  0
  122.1511  150.1484  146.2388 C   0  0  0  0  0  0  0  0  0  0  0  0
  122.1448  149.1177  145.1772 C   0  0  1  0  0  0  0  0  0  0  0  0
  120.8701  148.2594  145.1792 C   0  0  1  0  0  0  0  0  0  0  0  0
  121.1111  147.1759  144.1499 C   0  0  0  0  0  0  0  0  0  0  0  0
  120.9979  147.7989  142.7943 C   0  0  0  0  0  0  0  0  0  0  0  0
  122.0447  148.8578  142.6993 C   0  0  0  0  0  0  0  0  0  0  0  0
  122.6765  149.0411  141.5553 C   0  0  0  0  0  0  0  0  0  0  0  0
  123.7097  150.0430  141.3586 C   0  0  0  0  0  0  0  0  0  0  0  0
  124.1543  150.2862  140.1888 O   0  0  0  0  0  0  0  0  0  0  0  0
  124.2526  150.7856  142.5026 C   0  0  0  0  0  0  0  0  0  0  0  0
  123.9103  150.0676  143.8006 C   0  0  0  0  0  0  0  0  0  0  0  0
  122.4156  149.7274  143.8436 C   0  0  2  0  0  0  0  0  0  0  0  0
  121.6865  151.0439  143.6454 C   0  0  0  0  0  0  0  0  0  0  0  0
  122.6979  146.9673  150.3673 C   0  0  0  0  0  0  0  0  0  0  0  0
  123.7500  147.0965  149.4828 C   0  0  0  0  0  0  0  0  0  0  0  0
  125.0620  147.0077  149.9524 C   0  0  0  0  0  0  0  0  0  0  0  0
  125.3504  146.7934  151.2820 C   0  0  0  0  0  0  0  0  0  0  0  0
  124.2910  146.6647  152.1634 C   0  0  0  0  0  0  0  0  0  0  0  0
  123.0129  146.7534  151.6922 C   0  0  0  0  0  0  0  0  0  0  0  0
  1  2  1  6
  3  2  1  6
  3  4  1  0
  4  5  1  0
  5  6  1  1
  5  7  1  0
  7  8  1  0
  8  9  1  1
  9 10  1  0
  9 11  2  0
  8 12  1  0
 12 13  1  6
 12 14  1  0
 14 15  1  0
 16 15  1  1
 16 17  1  0
 17 18  1  6
 18 19  1  0
 19 20  1  0
 20 21  2  0
 21 22  1  0
 22 23  2  0
 22 24  1  0
 24 25  1  0
 25 26  1  0
 26 27  1  6
  5 28  1  0
 28 29  2  0
 29 30  1  0
 30 31  2  0
 31 32  1  0
 32 33  2  0
 12  1  1  0
 26 16  1  0
 33 28  1  0
 17  1  1  0
 26 20  1  0
  8  3  1  0
M  END
$$$$
