
     RDKit          3D

 33 38  0  0  0  0  0  0  0  0999 V2000
  187.6517  153.4853  125.9754 C   0  0  2  0  0  0  0  0  0  0  0  0
  187.2576  152.1178  125.6143 C   0  0  0  0  0  0  0  0  0  0  0  0
  186.3124  151.7979  126.7869 C   0  0  1  0  0  0  0  0  0  0  0  0
  187.0250  151.7119  127.9712 O   0  0  0  0  0  0  0  0  0  0  0  0
  186.1643  152.2469  128.8957 C   0  0  2  0  0  0  0  0  0  0  0  0
  185.0954  151.1877  129.1905 C   0  0  0  0  0  0  0  0  0  0  0  0
  185.6063  153.3796  128.3562 O   0  0  0  0  0  0  0  0  0  0  0  0
  185.5634  153.1122  126.9676 C   0  0  2  0  0  0  0  0  0  0  0  0
  184.1449  152.9866  126.5969 C   0  0  0  0  0  0  0  0  0  0  0  0
  182.9796  153.3497  127.4487 C   0  0  0  0  0  0  0  0  0  0  0  0
  183.8992  152.5378  125.4584 O   0  0  0  0  0  0  0  0  0  0  0  0
  186.2963  154.1676  126.2247 C   0  0  2  0  0  0  0  0  0  0  0  0
  185.6706  154.6635  124.9784 C   0  0  0  0  0  0  0  0  0  0  0  0
  186.6892  155.3340  127.1313 C   0  0  0  0  0  0  0  0  0  0  0  0
  187.6886  156.2367  126.4890 C   0  0  0  0  0  0  0  0  0  0  0  0
  188.8166  155.5725  125.7992 C   0  0  1  0  0  0  0  0  0  0  0  0
  188.3906  154.3195  125.0181 C   0  0  1  0  0  0  0  0  0  0  0  0
  189.6778  153.6950  124.5235 C   0  0  0  0  0  0  0  0  0  0  0  0
  190.1916  154.5358  123.3977 C   0  0  0  0  0  0  0  0  0  0  0  0
  190.4437  155.9031  123.9389 C   0  0  0  0  0  0  0  0  0  0  0  0
  191.4888  156.5853  123.5100 C   0  0  0  0  0  0  0  0  0  0  0  0
  191.8223  157.9212  123.9727 C   0  0  0  0  0  0  0  0  0  0  0  0
  192.7389  158.5916  123.3933 O   0  0  0  0  0  0  0  0  0  0  0  0
  191.1088  158.5136  125.1106 C   0  0  0  0  0  0  0  0  0  0  0  0
  190.3858  157.4279  125.8956 C   0  0  0  0  0  0  0  0  0  0  0  0
  189.5650  156.5430  124.9497 C   0  0  2  0  0  0  0  0  0  0  0  0
  188.6464  157.4863  124.1947 C   0  0  0  0  0  0  0  0  0  0  0  0
  186.8208  152.6081  130.1693 C   0  0  0  0  0  0  0  0  0  0  0  0
  186.1181  153.0940  131.2537 C   0  0  0  0  0  0  0  0  0  0  0  0
  186.7989  153.4169  132.4293 C   0  0  0  0  0  0  0  0  0  0  0  0
  188.1628  153.2673  132.5498 C   0  0  0  0  0  0  0  0  0  0  0  0
  188.8611  152.7798  131.4588 C   0  0  0  0  0  0  0  0  0  0  0  0
  188.1843  152.4676  130.3152 C   0  0  0  0  0  0  0  0  0  0  0  0
  1  2  1  6
  3  2  1  6
  3  4  1  0
  4  5  1  0
  5  6  1  1
  5  7  1  0
  7  8  1  0
  8  9  1  6
  9 10  1  0
  9 11  2  0
  8 12  1  0
 12 13  1  6
 12 14  1  0
 14 15  1  0
 16 15  1  6
 16 17  1  0
 17 18  1  1
 18 19  1  0
 19 20  1  0
 20 21  2  0
 21 22  1  0
 22 23  2  0
 22 24  1  0
 24 25  1  0
 25 26  1  0
 26 27  1  6
  5 28  1  0
 28 29  2  0
 29 30  1  0
 30 31  2  0
 31 32  1  0
 32 33  2  0
 12  1  1  0
 26 16  1  0
 33 28  1  0
 17  1  1  0
 26 20  1  0
  8  3  1  0
M  END
$$$$
