
     RDKit          3D

 33 38  0  0  0  0  0  0  0  0999 V2000
  128.8383  145.2716  135.7344 C   0  0  2  0  0  0  0  0  0  0  0  0
  129.8685  144.6370  136.5661 C   0  0  0  0  0  0  0  0  0  0  0  0
  129.9384  143.2554  135.8903 C   0  0  1  0  0  0  0  0  0  0  0  0
  128.7626  142.5549  136.1017 O   0  0  0  0  0  0  0  0  0  0  0  0
  128.5872  141.8721  134.9250 C   0  0  2  0  0  0  0  0  0  0  0  0
  129.5655  140.6913  134.9324 C   0  0  0  0  0  0  0  0  0  0  0  0
  128.8531  142.7315  133.8875 O   0  0  0  0  0  0  0  0  0  0  0  0
  129.8287  143.6111  134.4129 C   0  0  2  0  0  0  0  0  0  0  0  0
  131.0835  143.3419  133.6929 C   0  0  0  0  0  0  0  0  0  0  0  0
  131.4698  142.0545  133.0536 C   0  0  0  0  0  0  0  0  0  0  0  0
  131.8961  144.2856  133.6076 O   0  0  0  0  0  0  0  0  0  0  0  0
  129.3556  145.0140  134.3094 C   0  0  2  0  0  0  0  0  0  0  0  0
  130.3471  146.0223  133.8726 C   0  0  0  0  0  0  0  0  0  0  0  0
  128.0752  145.1238  133.4814 C   0  0  0  0  0  0  0  0  0  0  0  0
  127.4171  146.4542  133.6328 C   0  0  0  0  0  0  0  0  0  0  0  0
  127.3165  146.9771  135.0134 C   0  0  1  0  0  0  0  0  0  0  0  0
  128.5779  146.7128  135.8504 C   0  0  1  0  0  0  0  0  0  0  0  0
  128.2336  147.1647  137.2535 C   0  0  0  0  0  0  0  0  0  0  0  0
  128.2283  148.6608  137.2643 C   0  0  0  0  0  0  0  0  0  0  0  0
  127.1873  149.1118  136.2954 C   0  0  0  0  0  0  0  0  0  0  0  0
  126.4552  150.1723  136.5805 C   0  0  0  0  0  0  0  0  0  0  0  0
  125.4179  150.6921  135.7066 C   0  0  0  0  0  0  0  0  0  0  0  0
  124.8705  151.8159  135.9570 O   0  0  0  0  0  0  0  0  0  0  0  0
  124.9889  149.9307  134.5271 C   0  0  0  0  0  0  0  0  0  0  0  0
  125.4417  148.4823  134.6481 C   0  0  0  0  0  0  0  0  0  0  0  0
  126.9307  148.4174  135.0088 C   0  0  2  0  0  0  0  0  0  0  0  0
  127.6510  149.2106  133.9337 C   0  0  0  0  0  0  0  0  0  0  0  0
  127.2199  141.3387  134.7536 C   0  0  0  0  0  0  0  0  0  0  0  0
  126.6600  140.4370  135.6364 C   0  0  0  0  0  0  0  0  0  0  0  0
  125.3621  139.9712  135.4173 C   0  0  0  0  0  0  0  0  0  0  0  0
  124.6091  140.3823  134.3398 C   0  0  0  0  0  0  0  0  0  0  0  0
  125.1765  141.2863  133.4587 C   0  0  0  0  0  0  0  0  0  0  0  0
  126.4462  141.7344  133.6837 C   0  0  0  0  0  0  0  0  0  0  0  0
  1  2  1  1
  3  2  1  1
  3  4  1  0
  4  5  1  0
  5  6  1  1
  5  7  1  0
  7  8  1  0
  8  9  1  6
  9 10  1  0
  9 11  2  0
  8 12  1  0
 12 13  1  6
 12 14  1  0
 14 15  1  0
 16 15  1  6
 16 17  1  0
 17 18  1  1
 18 19  1  0
 19 20  1  0
 20 21  2  0
 21 22  1  0
 22 23  2  0
 22 24  1  0
 24 25  1  0
 25 26  1  0
 26 27  1  6
  5 28  1  0
 28 29  2  0
 29 30  1  0
 30 31  2  0
 31 32  1  0
 32 33  2  0
 12  1  1  0
 26 16  1  0
 33 28  1  0
 17  1  1  0
 26 20  1  0
  8  3  1  0
M  END
$$$$
