
     RDKit          3D

 33 38  0  0  0  0  0  0  0  0999 V2000
  128.9768  145.2042  136.0127 C   0  0  2  0  0  0  0  0  0  0  0  0
  129.9915  146.2209  136.3170 C   0  0  0  0  0  0  0  0  0  0  0  0
  129.9049  147.0708  135.0360 C   0  0  1  0  0  0  0  0  0  0  0  0
  130.3696  146.3516  133.9476 O   0  0  0  0  0  0  0  0  0  0  0  0
  129.5497  146.7610  132.9269 C   0  0  2  0  0  0  0  0  0  0  0  0
  130.0166  148.1574  132.4988 C   0  0  0  0  0  0  0  0  0  0  0  0
  128.2605  146.7907  133.3987 O   0  0  0  0  0  0  0  0  0  0  0  0
  128.4051  147.1054  134.7705 C   0  0  2  0  0  0  0  0  0  0  0  0
  127.8483  148.4537  134.9640 C   0  0  0  0  0  0  0  0  0  0  0  0
  127.2371  149.3102  133.9113 C   0  0  0  0  0  0  0  0  0  0  0  0
  127.8892  148.9177  136.1220 O   0  0  0  0  0  0  0  0  0  0  0  0
  127.7644  146.0563  135.6021 C   0  0  2  0  0  0  0  0  0  0  0  0
  126.9723  146.5170  136.7644 C   0  0  0  0  0  0  0  0  0  0  0  0
  126.9564  145.0727  134.7555 C   0  0  0  0  0  0  0  0  0  0  0  0
  126.5784  143.8480  135.5193 C   0  0  0  0  0  0  0  0  0  0  0  0
  127.6476  143.2367  136.3392 C   0  0  1  0  0  0  0  0  0  0  0  0
  128.5239  144.2753  137.0569 C   0  0  1  0  0  0  0  0  0  0  0  0
  129.6410  143.4839  137.7030 C   0  0  0  0  0  0  0  0  0  0  0  0
  129.0703  142.7690  138.8868 C   0  0  0  0  0  0  0  0  0  0  0  0
  128.0004  141.8575  138.3864 C   0  0  0  0  0  0  0  0  0  0  0  0
  127.8502  140.6703  138.9430 C   0  0  0  0  0  0  0  0  0  0  0  0
  126.8412  139.7103  138.5305 C   0  0  0  0  0  0  0  0  0  0  0  0
  126.6348  138.6585  139.2207 O   0  0  0  0  0  0  0  0  0  0  0  0
  126.0489  139.9400  137.3161 C   0  0  0  0  0  0  0  0  0  0  0  0
  126.7234  140.9897  136.4439 C   0  0  0  0  0  0  0  0  0  0  0  0
  127.0837  142.2249  137.2783 C   0  0  2  0  0  0  0  0  0  0  0  0
  125.7863  142.6833  137.9190 C   0  0  0  0  0  0  0  0  0  0  0  0
  129.5964  145.8754  131.7450 C   0  0  0  0  0  0  0  0  0  0  0  0
  130.6351  144.9945  131.5193 C   0  0  0  0  0  0  0  0  0  0  0  0
  130.6190  144.1845  130.3820 C   0  0  0  0  0  0  0  0  0  0  0  0
  129.5928  144.2315  129.4646 C   0  0  0  0  0  0  0  0  0  0  0  0
  128.5545  145.1168  129.6969 C   0  0  0  0  0  0  0  0  0  0  0  0
  128.5817  145.9033  130.8123 C   0  0  0  0  0  0  0  0  0  0  0  0
  1  2  1  1
  3  2  1  1
  3  4  1  0
  4  5  1  0
  5  6  1  6
  5  7  1  0
  7  8  1  0
  8  9  1  6
  9 10  1  0
  9 11  2  0
  8 12  1  0
 12 13  1  1
 12 14  1  0
 14 15  1  0
 16 15  1  1
 16 17  1  0
 17 18  1  6
 18 19  1  0
 19 20  1  0
 20 21  2  0
 21 22  1  0
 22 23  2  0
 22 24  1  0
 24 25  1  0
 25 26  1  0
 26 27  1  1
  5 28  1  0
 28 29  2  0
 29 30  1  0
 30 31  2  0
 31 32  1  0
 32 33  2  0
 12  1  1  0
 26 16  1  0
 33 28  1  0
 17  1  1  0
 26 20  1  0
  8  3  1  0
M  END
$$$$
