
     RDKit          3D

 33 38  0  0  0  0  0  0  0  0999 V2000
  128.7420  146.7371  134.2319 C   0  0  2  0  0  0  0  0  0  0  0  0
  129.5072  147.6546  133.3784 C   0  0  0  0  0  0  0  0  0  0  0  0
  128.8850  148.9955  133.8092 C   0  0  1  0  0  0  0  0  0  0  0  0
  127.5650  149.0692  133.3972 O   0  0  0  0  0  0  0  0  0  0  0  0
  126.9524  149.7430  134.4231 C   0  0  2  0  0  0  0  0  0  0  0  0
  127.3228  151.2242  134.2816 C   0  0  0  0  0  0  0  0  0  0  0  0
  127.4122  149.2265  135.6095 O   0  0  0  0  0  0  0  0  0  0  0  0
  128.7329  148.8139  135.3142 C   0  0  2  0  0  0  0  0  0  0  0  0
  129.6384  149.6988  136.0642 C   0  0  0  0  0  0  0  0  0  0  0  0
  129.2671  150.9822  136.7202 C   0  0  0  0  0  0  0  0  0  0  0  0
  130.8278  149.3333  136.1620 O   0  0  0  0  0  0  0  0  0  0  0  0
  128.8953  147.3716  135.6242 C   0  0  2  0  0  0  0  0  0  0  0  0
  130.1508  146.9708  136.2976 C   0  0  0  0  0  0  0  0  0  0  0  0
  127.6828  146.8084  136.3657 C   0  0  0  0  0  0  0  0  0  0  0  0
  127.6845  145.3167  136.3997 C   0  0  0  0  0  0  0  0  0  0  0  0
  128.0107  144.6372  135.1264 C   0  0  1  0  0  0  0  0  0  0  0  0
  129.1413  145.3281  134.3480 C   0  0  1  0  0  0  0  0  0  0  0  0
  129.2226  144.6006  133.0230 C   0  0  0  0  0  0  0  0  0  0  0  0
  129.8586  143.2691  133.2700 C   0  0  0  0  0  0  0  0  0  0  0  0
  128.9862  142.5266  134.2258 C   0  0  0  0  0  0  0  0  0  0  0  0
  128.8251  141.2253  134.0767 C   0  0  0  0  0  0  0  0  0  0  0  0
  127.9987  140.4116  134.9512 C   0  0  0  0  0  0  0  0  0  0  0  0
  128.0247  139.1403  134.8602 O   0  0  0  0  0  0  0  0  0  0  0  0
  127.1255  141.0429  135.9482 C   0  0  0  0  0  0  0  0  0  0  0  0
  126.9280  142.5144  135.6117 C   0  0  0  0  0  0  0  0  0  0  0  0
  128.2808  143.1882  135.3519 C   0  0  2  0  0  0  0  0  0  0  0  0
  129.1132  142.9370  136.5960 C   0  0  0  0  0  0  0  0  0  0  0  0
  125.4792  149.6307  134.4024 C   0  0  0  0  0  0  0  0  0  0  0  0
  124.7592  149.1250  135.4662 C   0  0  0  0  0  0  0  0  0  0  0  0
  123.3676  149.0457  135.3830 C   0  0  0  0  0  0  0  0  0  0  0  0
  122.6767  149.4582  134.2652 C   0  0  0  0  0  0  0  0  0  0  0  0
  123.4046  149.9641  133.2023 C   0  0  0  0  0  0  0  0  0  0  0  0
  124.7645  150.0366  133.2957 C   0  0  0  0  0  0  0  0  0  0  0  0
  1  2  1  6
  3  2  1  6
  3  4  1  0
  4  5  1  0
  5  6  1  1
  5  7  1  0
  7  8  1  0
  8  9  1  1
  9 10  1  0
  9 11  2  0
  8 12  1  0
 12 13  1  1
 12 14  1  0
 14 15  1  0
 16 15  1  1
 16 17  1  0
 17 18  1  6
 18 19  1  0
 19 20  1  0
 20 21  2  0
 21 22  1  0
 22 23  2  0
 22 24  1  0
 24 25  1  0
 25 26  1  0
 26 27  1  1
  5 28  1  0
 28 29  2  0
 29 30  1  0
 30 31  2  0
 31 32  1  0
 32 33  2  0
 12  1  1  0
 26 16  1  0
 33 28  1  0
 17  1  1  0
 26 20  1  0
  8  3  1  0
M  END
$$$$
