
     RDKit          3D

 33 38  0  0  0  0  0  0  0  0999 V2000
  203.0167  134.8295  132.6478 C   0  0  2  0  0  0  0  0  0  0  0  0
  203.3230  133.5049  132.0934 C   0  0  0  0  0  0  0  0  0  0  0  0
  203.2072  132.6520  133.3700 C   0  0  1  0  0  0  0  0  0  0  0  0
  204.2272  132.9644  134.2531 O   0  0  0  0  0  0  0  0  0  0  0  0
  203.6239  132.8594  135.4805 C   0  0  2  0  0  0  0  0  0  0  0  0
  203.4919  131.3650  135.7977 C   0  0  0  0  0  0  0  0  0  0  0  0
  202.3925  133.4624  135.4054 O   0  0  0  0  0  0  0  0  0  0  0  0
  201.9964  133.2659  134.0615 C   0  0  2  0  0  0  0  0  0  0  0  0
  200.8524  132.3405  134.0807 C   0  0  0  0  0  0  0  0  0  0  0  0
  199.9873  132.0388  135.2536 C   0  0  0  0  0  0  0  0  0  0  0  0
  200.5816  131.7595  133.0097 O   0  0  0  0  0  0  0  0  0  0  0  0
  201.7117  134.5736  133.4199 C   0  0  2  0  0  0  0  0  0  0  0  0
  200.5140  134.6454  132.5535 C   0  0  0  0  0  0  0  0  0  0  0  0
  201.7124  135.7177  134.4339 C   0  0  0  0  0  0  0  0  0  0  0  0
  201.7491  137.0560  133.7752 C   0  0  0  0  0  0  0  0  0  0  0  0
  202.7107  137.2066  132.6608 C   0  0  1  0  0  0  0  0  0  0  0  0
  202.7775  135.9692  131.7521 C   0  0  1  0  0  0  0  0  0  0  0  0
  203.9099  136.2393  130.7845 C   0  0  0  0  0  0  0  0  0  0  0  0
  203.4347  137.2570  129.7962 C   0  0  0  0  0  0  0  0  0  0  0  0
  203.0867  138.4920  130.5574 C   0  0  0  0  0  0  0  0  0  0  0  0
  203.3549  139.6724  130.0318 C   0  0  0  0  0  0  0  0  0  0  0  0
  203.0567  140.9325  130.6898 C   0  0  0  0  0  0  0  0  0  0  0  0
  203.1788  142.0325  130.0570 O   0  0  0  0  0  0  0  0  0  0  0  0
  202.6121  140.9538  132.0887 C   0  0  0  0  0  0  0  0  0  0  0  0
  202.9361  139.6261  132.7594 C   0  0  0  0  0  0  0  0  0  0  0  0
  202.4446  138.4583  131.8954 C   0  0  2  0  0  0  0  0  0  0  0  0
  200.9630  138.7029  131.6745 C   0  0  0  0  0  0  0  0  0  0  0  0
  204.3929  133.4970  136.5694 C   0  0  0  0  0  0  0  0  0  0  0  0
  205.7130  133.8733  136.4227 C   0  0  0  0  0  0  0  0  0  0  0  0
  206.3834  134.4717  137.4915 C   0  0  0  0  0  0  0  0  0  0  0  0
  205.7697  134.7040  138.7024 C   0  0  0  0  0  0  0  0  0  0  0  0
  204.4462  134.3243  138.8427 C   0  0  0  0  0  0  0  0  0  0  0  0
  203.8016  133.7402  137.7906 C   0  0  0  0  0  0  0  0  0  0  0  0
  1  2  1  6
  3  2  1  6
  3  4  1  0
  4  5  1  0
  5  6  1  1
  5  7  1  0
  7  8  1  0
  8  9  1  1
  9 10  1  0
  9 11  2  0
  8 12  1  0
 12 13  1  6
 12 14  1  0
 14 15  1  0
 16 15  1  1
 16 17  1  0
 17 18  1  6
 18 19  1  0
 19 20  1  0
 20 21  2  0
 21 22  1  0
 22 23  2  0
 22 24  1  0
 24 25  1  0
 25 26  1  0
 26 27  1  6
  5 28  1  0
 28 29  2  0
 29 30  1  0
 30 31  2  0
 31 32  1  0
 32 33  2  0
 12  1  1  0
 26 16  1  0
 33 28  1  0
 17  1  1  0
 26 20  1  0
  8  3  1  0
M  END
$$$$
