
     RDKit          3D

 33 38  0  0  0  0  0  0  0  0999 V2000
  201.5303  134.4740  132.5384 C   0  0  2  0  0  0  0  0  0  0  0  0
  201.5871  133.1088  132.0011 C   0  0  0  0  0  0  0  0  0  0  0  0
  200.4896  132.4448  132.8528 C   0  0  1  0  0  0  0  0  0  0  0  0
  200.8851  132.3725  134.1780 O   0  0  0  0  0  0  0  0  0  0  0  0
  199.7179  132.5849  134.8667 C   0  0  2  0  0  0  0  0  0  0  0  0
  198.9039  131.2873  134.7961 C   0  0  0  0  0  0  0  0  0  0  0  0
  199.0499  133.6241  134.2670 O   0  0  0  0  0  0  0  0  0  0  0  0
  199.4195  133.5281  132.9048 C   0  0  2  0  0  0  0  0  0  0  0  0
  198.2131  133.1387  132.1576 C   0  0  0  0  0  0  0  0  0  0  0  0
  198.1253  132.9108  130.6894 C   0  0  0  0  0  0  0  0  0  0  0  0
  197.1678  132.9803  132.8213 O   0  0  0  0  0  0  0  0  0  0  0  0
  200.0307  134.8032  132.4536 C   0  0  2  0  0  0  0  0  0  0  0  0
  199.6311  135.2990  131.1176 C   0  0  0  0  0  0  0  0  0  0  0  0
  199.8872  135.9060  133.5025 C   0  0  0  0  0  0  0  0  0  0  0  0
  200.7607  137.0799  133.2107 C   0  0  0  0  0  0  0  0  0  0  0  0
  202.1520  136.7725  132.8119 C   0  0  1  0  0  0  0  0  0  0  0  0
  202.2547  135.5631  131.8694 C   0  0  1  0  0  0  0  0  0  0  0  0
  203.7371  135.3050  131.7035 C   0  0  0  0  0  0  0  0  0  0  0  0
  204.2905  136.3716  130.8122 C   0  0  0  0  0  0  0  0  0  0  0  0
  204.0563  137.6829  131.4842 C   0  0  0  0  0  0  0  0  0  0  0  0
  204.9739  138.6272  131.3964 C   0  0  0  0  0  0  0  0  0  0  0  0
  204.8430  139.9359  132.0129 C   0  0  0  0  0  0  0  0  0  0  0  0
  205.6805  140.8590  131.7450 O   0  0  0  0  0  0  0  0  0  0  0  0
  203.7468  140.2099  132.9500 C   0  0  0  0  0  0  0  0  0  0  0  0
  203.1420  138.9025  133.4422 C   0  0  0  0  0  0  0  0  0  0  0  0
  202.8250  137.9821  132.2573 C   0  0  2  0  0  0  0  0  0  0  0  0
  201.9191  138.7850  131.3416 C   0  0  0  0  0  0  0  0  0  0  0  0
  199.9286  132.9218  136.2898 C   0  0  0  0  0  0  0  0  0  0  0  0
  198.9492  133.5091  137.0655 C   0  0  0  0  0  0  0  0  0  0  0  0
  199.2125  133.8022  138.4051 C   0  0  0  0  0  0  0  0  0  0  0  0
  200.4281  133.5241  138.9899 C   0  0  0  0  0  0  0  0  0  0  0  0
  201.4055  132.9353  138.2066 C   0  0  0  0  0  0  0  0  0  0  0  0
  201.1361  132.6536  136.8984 C   0  0  0  0  0  0  0  0  0  0  0  0
  1  2  1  6
  3  2  1  6
  3  4  1  0
  4  5  1  0
  5  6  1  1
  5  7  1  0
  7  8  1  0
  8  9  1  6
  9 10  1  0
  9 11  2  0
  8 12  1  0
 12 13  1  6
 12 14  1  0
 14 15  1  0
 16 15  1  6
 16 17  1  0
 17 18  1  1
 18 19  1  0
 19 20  1  0
 20 21  2  0
 21 22  1  0
 22 23  2  0
 22 24  1  0
 24 25  1  0
 25 26  1  0
 26 27  1  6
  5 28  1  0
 28 29  2  0
 29 30  1  0
 30 31  2  0
 31 32  1  0
 32 33  2  0
 12  1  1  0
 26 16  1  0
 33 28  1  0
 17  1  1  0
 26 20  1  0
  8  3  1  0
M  END
$$$$
