
     RDKit          3D

 33 38  0  0  0  0  0  0  0  0999 V2000
  202.6154  139.7586  131.6392 C   0  0  2  0  0  0  0  0  0  0  0  0
  203.3792  139.5279  132.8717 C   0  0  0  0  0  0  0  0  0  0  0  0
  203.2435  137.9983  132.9832 C   0  0  1  0  0  0  0  0  0  0  0  0
  201.9307  137.6488  133.2519 O   0  0  0  0  0  0  0  0  0  0  0  0
  201.7648  136.4836  132.5473 C   0  0  2  0  0  0  0  0  0  0  0  0
  202.4670  135.3707  133.3344 C   0  0  0  0  0  0  0  0  0  0  0  0
  202.3307  136.6487  131.3072 O   0  0  0  0  0  0  0  0  0  0  0  0
  203.3951  137.5528  131.5341 C   0  0  2  0  0  0  0  0  0  0  0  0
  204.6459  136.8076  131.3210 C   0  0  0  0  0  0  0  0  0  0  0  0
  204.9307  135.8739  130.1975 C   0  0  0  0  0  0  0  0  0  0  0  0
  205.5533  136.9811  132.1604 O   0  0  0  0  0  0  0  0  0  0  0  0
  203.2410  138.7463  130.6654 C   0  0  2  0  0  0  0  0  0  0  0  0
  204.4673  139.2626  130.0171 C   0  0  0  0  0  0  0  0  0  0  0  0
  202.1248  138.5622  129.6372 C   0  0  0  0  0  0  0  0  0  0  0  0
  201.7445  139.8469  128.9805 C   0  0  0  0  0  0  0  0  0  0  0  0
  201.5840  141.0133  129.8767 C   0  0  1  0  0  0  0  0  0  0  0  0
  202.6485  141.0729  130.9834 C   0  0  1  0  0  0  0  0  0  0  0  0
  202.2339  142.2190  131.8812 C   0  0  0  0  0  0  0  0  0  0  0  0
  202.5390  143.4959  131.1639 C   0  0  0  0  0  0  0  0  0  0  0  0
  201.7436  143.5015  129.9017 C   0  0  0  0  0  0  0  0  0  0  0  0
  201.2188  144.6341  129.4735 C   0  0  0  0  0  0  0  0  0  0  0  0
  200.4295  144.7466  128.2593 C   0  0  0  0  0  0  0  0  0  0  0  0
  200.1013  145.8938  127.8103 O   0  0  0  0  0  0  0  0  0  0  0  0
  200.0015  143.5426  127.5366 C   0  0  0  0  0  0  0  0  0  0  0  0
  200.1241  142.3219  128.4379 C   0  0  0  0  0  0  0  0  0  0  0  0
  201.5103  142.2793  129.0923 C   0  0  2  0  0  0  0  0  0  0  0  0
  202.5080  142.3159  127.9491 C   0  0  0  0  0  0  0  0  0  0  0  0
  200.3486  136.1013  132.3696 C   0  0  0  0  0  0  0  0  0  0  0  0
  199.4146  136.2268  133.3784 C   0  0  0  0  0  0  0  0  0  0  0  0
  198.0912  135.8472  133.1455 C   0  0  0  0  0  0  0  0  0  0  0  0
  197.6765  135.3457  131.9316 C   0  0  0  0  0  0  0  0  0  0  0  0
  198.6179  135.2225  130.9245 C   0  0  0  0  0  0  0  0  0  0  0  0
  199.9085  135.5970  131.1644 C   0  0  0  0  0  0  0  0  0  0  0  0
  1  2  1  1
  3  2  1  6
  3  4  1  0
  4  5  1  0
  5  6  1  1
  5  7  1  0
  7  8  1  0
  8  9  1  1
  9 10  1  0
  9 11  2  0
  8 12  1  0
 12 13  1  6
 12 14  1  0
 14 15  1  0
 16 15  1  6
 16 17  1  0
 17 18  1  1
 18 19  1  0
 19 20  1  0
 20 21  2  0
 21 22  1  0
 22 23  2  0
 22 24  1  0
 24 25  1  0
 25 26  1  0
 26 27  1  6
  5 28  1  0
 28 29  2  0
 29 30  1  0
 30 31  2  0
 31 32  1  0
 32 33  2  0
 12  1  1  0
 26 16  1  0
 33 28  1  0
 17  1  1  0
 26 20  1  0
  8  3  1  0
M  END
$$$$
