
     RDKit          3D

 33 38  0  0  0  0  0  0  0  0999 V2000
  130.4046  139.2375  131.8600 C   0  0  2  0  0  0  0  0  0  0  0  0
  129.2214  138.8142  132.6193 C   0  0  0  0  0  0  0  0  0  0  0  0
  129.4491  139.6020  133.9224 C   0  0  1  0  0  0  0  0  0  0  0  0
  130.5557  139.1118  134.5954 O   0  0  0  0  0  0  0  0  0  0  0  0
  131.1166  140.2384  135.1411 C   0  0  2  0  0  0  0  0  0  0  0  0
  130.2633  140.6316  136.3529 C   0  0  0  0  0  0  0  0  0  0  0  0
  131.1096  141.2256  134.1867 O   0  0  0  0  0  0  0  0  0  0  0  0
  129.9643  140.9398  133.4068 C   0  0  2  0  0  0  0  0  0  0  0  0
  128.9990  142.0244  133.6459 C   0  0  0  0  0  0  0  0  0  0  0  0
  129.1556  143.1403  134.6183 C   0  0  0  0  0  0  0  0  0  0  0  0
  127.9538  142.0069  132.9638 O   0  0  0  0  0  0  0  0  0  0  0  0
  130.3491  140.7692  131.9836 C   0  0  2  0  0  0  0  0  0  0  0  0
  129.4632  141.3903  130.9735 C   0  0  0  0  0  0  0  0  0  0  0  0
  131.8058  141.1614  131.7364 C   0  0  0  0  0  0  0  0  0  0  0  0
  132.2969  140.6998  130.4052 C   0  0  0  0  0  0  0  0  0  0  0  0
  131.9500  139.3113  130.0295 C   0  0  1  0  0  0  0  0  0  0  0  0
  130.5194  138.9188  130.4304 C   0  0  1  0  0  0  0  0  0  0  0  0
  130.4031  137.4422  130.1181 C   0  0  0  0  0  0  0  0  0  0  0  0
  130.3019  137.2950  128.6327 C   0  0  0  0  0  0  0  0  0  0  0  0
  131.5485  137.8619  128.0406 C   0  0  0  0  0  0  0  0  0  0  0  0
  132.0892  137.2756  126.9892 C   0  0  0  0  0  0  0  0  0  0  0  0
  133.2995  137.7472  126.3390 C   0  0  0  0  0  0  0  0  0  0  0  0
  133.6701  137.2435  125.2280 O   0  0  0  0  0  0  0  0  0  0  0  0
  134.1084  138.8074  126.9528 C   0  0  0  0  0  0  0  0  0  0  0  0
  133.7409  138.9594  128.4223 C   0  0  0  0  0  0  0  0  0  0  0  0
  132.2199  139.0695  128.5830 C   0  0  2  0  0  0  0  0  0  0  0  0
  131.7954  140.2348  127.7080 C   0  0  0  0  0  0  0  0  0  0  0  0
  132.5070  140.0391  135.5997 C   0  0  0  0  0  0  0  0  0  0  0  0
  133.4460  139.3623  134.8473 C   0  0  0  0  0  0  0  0  0  0  0  0
  134.7440  139.2084  135.3384 C   0  0  0  0  0  0  0  0  0  0  0  0
  135.1284  139.7126  136.5610 C   0  0  0  0  0  0  0  0  0  0  0  0
  134.1822  140.3900  137.3103 C   0  0  0  0  0  0  0  0  0  0  0  0
  132.9166  140.5340  136.8194 C   0  0  0  0  0  0  0  0  0  0  0  0
  1  2  1  6
  3  2  1  6
  3  4  1  0
  4  5  1  0
  5  6  1  1
  5  7  1  0
  7  8  1  0
  8  9  1  6
  9 10  1  0
  9 11  2  0
  8 12  1  0
 12 13  1  6
 12 14  1  0
 14 15  1  0
 16 15  1  6
 16 17  1  0
 17 18  1  1
 18 19  1  0
 19 20  1  0
 20 21  2  0
 21 22  1  0
 22 23  2  0
 22 24  1  0
 24 25  1  0
 25 26  1  0
 26 27  1  6
  5 28  1  0
 28 29  2  0
 29 30  1  0
 30 31  2  0
 31 32  1  0
 32 33  2  0
 12  1  1  0
 26 16  1  0
 33 28  1  0
 17  1  1  0
 26 20  1  0
  8  3  1  0
M  END
$$$$
