
     RDKit          3D

 33 38  0  0  0  0  0  0  0  0999 V2000
  127.3520  143.8982  134.3541 C   0  0  2  0  0  0  0  0  0  0  0  0
  126.0745  144.6022  134.5223 C   0  0  0  0  0  0  0  0  0  0  0  0
  126.5212  145.7375  135.4615 C   0  0  1  0  0  0  0  0  0  0  0  0
  126.8670  145.2292  136.7023 O   0  0  0  0  0  0  0  0  0  0  0  0
  127.9213  146.0197  137.0835 C   0  0  2  0  0  0  0  0  0  0  0  0
  127.3422  147.3651  137.5370 C   0  0  0  0  0  0  0  0  0  0  0  0
  128.7528  146.1755  136.0018 O   0  0  0  0  0  0  0  0  0  0  0  0
  127.8814  146.1160  134.8888 C   0  0  2  0  0  0  0  0  0  0  0  0
  127.8639  147.4571  134.2834 C   0  0  0  0  0  0  0  0  0  0  0  0
  129.0449  148.3353  134.0615 C   0  0  0  0  0  0  0  0  0  0  0  0
  126.7533  147.8942  133.9180 O   0  0  0  0  0  0  0  0  0  0  0  0
  128.3106  145.0361  133.9655 C   0  0  2  0  0  0  0  0  0  0  0  0
  128.2742  145.3419  132.5178 C   0  0  0  0  0  0  0  0  0  0  0  0
  129.6690  144.4562  134.3595 C   0  0  0  0  0  0  0  0  0  0  0  0
  129.9636  143.1763  133.6515 C   0  0  0  0  0  0  0  0  0  0  0  0
  128.8573  142.1954  133.5933 C   0  0  1  0  0  0  0  0  0  0  0  0
  127.4888  142.8461  133.3379 C   0  0  1  0  0  0  0  0  0  0  0  0
  126.4782  141.7269  133.4713 C   0  0  0  0  0  0  0  0  0  0  0  0
  126.5840  140.8668  132.2517 C   0  0  0  0  0  0  0  0  0  0  0  0
  127.9718  140.3207  132.2079 C   0  0  0  0  0  0  0  0  0  0  0  0
  128.1668  139.0841  131.7905 C   0  0  0  0  0  0  0  0  0  0  0  0
  129.4756  138.4592  131.7103 C   0  0  0  0  0  0  0  0  0  0  0  0
  129.6141  137.3296  131.1358 O   0  0  0  0  0  0  0  0  0  0  0  0
  130.6518  139.1203  132.2887 C   0  0  0  0  0  0  0  0  0  0  0  0
  130.2141  140.2042  133.2640 C   0  0  0  0  0  0  0  0  0  0  0  0
  129.1604  141.1106  132.6161 C   0  0  2  0  0  0  0  0  0  0  0  0
  129.7946  141.6352  131.3408 C   0  0  0  0  0  0  0  0  0  0  0  0
  128.7058  145.4539  138.2005 C   0  0  0  0  0  0  0  0  0  0  0  0
  130.0116  145.8249  138.4520 C   0  0  0  0  0  0  0  0  0  0  0  0
  130.6980  145.2521  139.5246 C   0  0  0  0  0  0  0  0  0  0  0  0
  130.1143  144.3187  140.3522 C   0  0  0  0  0  0  0  0  0  0  0  0
  128.8050  143.9512  140.0946 C   0  0  0  0  0  0  0  0  0  0  0  0
  128.1446  144.5183  139.0431 C   0  0  0  0  0  0  0  0  0  0  0  0
  1  2  1  6
  3  2  1  6
  3  4  1  0
  4  5  1  0
  5  6  1  1
  5  7  1  0
  7  8  1  0
  8  9  1  6
  9 10  1  0
  9 11  2  0
  8 12  1  0
 12 13  1  6
 12 14  1  0
 14 15  1  0
 16 15  1  6
 16 17  1  0
 17 18  1  1
 18 19  1  0
 19 20  1  0
 20 21  2  0
 21 22  1  0
 22 23  2  0
 22 24  1  0
 24 25  1  0
 25 26  1  0
 26 27  1  6
  5 28  1  0
 28 29  2  0
 29 30  1  0
 30 31  2  0
 31 32  1  0
 32 33  2  0
 12  1  1  0
 26 16  1  0
 33 28  1  0
 17  1  1  0
 26 20  1  0
  8  3  1  0
M  END
$$$$
