
     RDKit          3D

 32 37  0  0  0  0  0  0  0  0999 V2000
  132.9272  137.2464  134.2830 C   0  0  2  0  0  0  0  0  0  0  0  0
  133.4419  136.1607  135.2182 C   0  0  0  0  0  0  0  0  0  0  0  0
  132.9363  136.5201  136.6035 C   0  0  0  0  0  0  0  0  0  0  0  0
  132.2231  137.8679  136.3972 C   0  0  1  0  0  0  0  0  0  0  0  0
  131.2965  138.1292  137.3642 O   0  0  0  0  0  0  0  0  0  0  0  0
  133.2161  138.9249  136.2206 C   0  0  0  0  0  0  0  0  0  0  0  0
  134.0231  139.8128  136.0768 C   0  0  0  0  0  0  0  0  0  0  0  0
  135.0184  140.8768  135.8916 C   0  0  0  0  0  0  0  0  0  0  0  0
  131.6309  137.6011  135.0269 C   0  0  2  0  0  0  0  0  0  0  0  0
  130.7698  136.3892  135.1516 C   0  0  0  0  0  0  0  0  0  0  0  0
  130.8939  138.7305  134.4223 C   0  0  0  0  0  0  0  0  0  0  0  0
  131.5111  139.0621  133.0430 C   0  0  2  0  0  0  0  0  0  0  0  0
  131.0627  140.3270  132.5378 C   0  0  0  0  0  0  0  0  0  0  0  0
  131.8965  141.3943  132.3410 C   0  0  0  0  0  0  0  0  0  0  0  0
  131.3875  142.5938  131.9115 C   0  0  0  0  0  0  0  0  0  0  0  0
  130.0444  142.7809  131.6625 C   0  0  0  0  0  0  0  0  0  0  0  0
  129.2439  143.8327  131.2350 O   0  0  0  0  0  0  0  0  0  0  0  0
  127.8991  143.5518  131.5536 C   0  0  0  0  0  0  0  0  0  0  0  0
  127.8868  142.1212  131.5478 O   0  0  0  0  0  0  0  0  0  0  0  0
  129.1896  141.7160  131.8556 C   0  0  0  0  0  0  0  0  0  0  0  0
  129.7155  140.5270  132.2843 C   0  0  0  0  0  0  0  0  0  0  0  0
  131.7109  137.8772  132.2746 C   0  0  0  0  0  0  0  0  0  0  0  0
  131.2322  137.6220  131.0898 C   0  0  0  0  0  0  0  0  0  0  0  0
  130.3866  138.5575  130.3733 C   0  0  0  0  0  0  0  0  0  0  0  0
  129.4579  137.7657  129.4551 C   0  0  0  0  0  0  0  0  0  0  0  0
  129.4470  136.3203  129.6858 C   0  0  0  0  0  0  0  0  0  0  0  0
  128.3978  135.6788  129.7978 O   0  0  0  0  0  0  0  0  0  0  0  0
  130.7325  135.6404  129.7808 C   0  0  0  0  0  0  0  0  0  0  0  0
  131.6385  136.3144  130.4970 C   0  0  0  0  0  0  0  0  0  0  0  0
  133.0137  135.8627  130.7000 C   0  0  0  0  0  0  0  0  0  0  0  0
  133.5987  136.2866  132.0340 C   0  0  0  0  0  0  0  0  0  0  0  0
  132.5469  136.7787  132.9584 C   0  0  1  0  0  0  0  0  0  0  0  0
  1  2  1  1
  2  3  1  0
  3  4  1  0
  4  5  1  1
  4  6  1  0
  6  7  3  0
  7  8  1  0
  4  9  1  0
  9 10  1  1
  9 11  1  0
 11 12  1  0
 12 13  1  6
 13 14  2  0
 14 15  1  0
 15 16  2  0
 16 17  1  0
 17 18  1  0
 18 19  1  0
 19 20  1  0
 20 21  2  0
 12 22  1  0
 22 23  2  0
 23 24  1  0
 24 25  1  0
 25 26  1  0
 26 27  2  0
 26 28  1  0
 28 29  2  0
 29 30  1  0
 30 31  1  0
 32 31  1  6
  9  1  1  0
 21 13  1  0
 32 22  1  0
 32  1  1  0
 20 16  1  0
 29 23  1  0
M  END
$$$$
