
     RDKit          3D

 32 37  0  0  0  0  0  0  0  0999 V2000
  191.2427  162.0674  126.5865 C   0  0  2  0  0  0  0  0  0  0  0  0
  192.0129  162.6112  127.7822 C   0  0  0  0  0  0  0  0  0  0  0  0
  190.9984  162.7793  128.8987 C   0  0  0  0  0  0  0  0  0  0  0  0
  189.6597  162.4024  128.2401 C   0  0  1  0  0  0  0  0  0  0  0  0
  188.7166  162.0119  129.1454 O   0  0  0  0  0  0  0  0  0  0  0  0
  189.2280  163.4829  127.3564 C   0  0  0  0  0  0  0  0  0  0  0  0
  188.8562  164.3648  126.6187 C   0  0  0  0  0  0  0  0  0  0  0  0
  188.4263  165.4447  125.7209 C   0  0  0  0  0  0  0  0  0  0  0  0
  190.1575  161.2861  127.3427 C   0  0  2  0  0  0  0  0  0  0  0  0
  190.7909  160.2646  128.2264 C   0  0  0  0  0  0  0  0  0  0  0  0
  189.1406  160.6816  126.4569 C   0  0  0  0  0  0  0  0  0  0  0  0
  189.6156  160.7876  124.9883 C   0  0  2  0  0  0  0  0  0  0  0  0
  188.5617  160.5116  124.0558 C   0  0  0  0  0  0  0  0  0  0  0  0
  187.6234  159.5347  124.2520 C   0  0  0  0  0  0  0  0  0  0  0  0
  186.6790  159.2859  123.2884 C   0  0  0  0  0  0  0  0  0  0  0  0
  186.6281  159.9888  122.1034 C   0  0  0  0  0  0  0  0  0  0  0  0
  185.8270  159.9783  120.9685 O   0  0  0  0  0  0  0  0  0  0  0  0
  186.4978  160.6427  119.9208 C   0  0  0  0  0  0  0  0  0  0  0  0
  187.3333  161.5564  120.6375 O   0  0  0  0  0  0  0  0  0  0  0  0
  187.5661  160.9768  121.8890 C   0  0  0  0  0  0  0  0  0  0  0  0
  188.5004  161.2111  122.8616 C   0  0  0  0  0  0  0  0  0  0  0  0
  190.9753  160.3764  124.8604 C   0  0  0  0  0  0  0  0  0  0  0  0
  191.4395  159.4346  124.0886 C   0  0  0  0  0  0  0  0  0  0  0  0
  190.5842  158.6423  123.2259 C   0  0  0  0  0  0  0  0  0  0  0  0
  191.2234  157.2678  123.0401 C   0  0  0  0  0  0  0  0  0  0  0  0
  192.3494  156.9851  123.9317 C   0  0  0  0  0  0  0  0  0  0  0  0
  192.4335  155.9338  124.5740 O   0  0  0  0  0  0  0  0  0  0  0  0
  193.3934  157.9957  124.0448 C   0  0  0  0  0  0  0  0  0  0  0  0
  192.9189  159.2436  124.1210 C   0  0  0  0  0  0  0  0  0  0  0  0
  193.7664  160.4322  124.1957 C   0  0  0  0  0  0  0  0  0  0  0  0
  193.1471  161.5675  124.9886 C   0  0  0  0  0  0  0  0  0  0  0  0
  191.9761  161.1069  125.7758 C   0  0  1  0  0  0  0  0  0  0  0  0
  1  2  1  1
  2  3  1  0
  3  4  1  0
  4  5  1  1
  4  6  1  0
  6  7  3  0
  7  8  1  0
  4  9  1  0
  9 10  1  1
  9 11  1  0
 11 12  1  0
 12 13  1  6
 13 14  2  0
 14 15  1  0
 15 16  2  0
 16 17  1  0
 17 18  1  0
 18 19  1  0
 19 20  1  0
 20 21  2  0
 12 22  1  0
 22 23  2  0
 23 24  1  0
 24 25  1  0
 25 26  1  0
 26 27  2  0
 26 28  1  0
 28 29  2  0
 29 30  1  0
 30 31  1  0
 32 31  1  6
  9  1  1  0
 21 13  1  0
 32 22  1  0
 32  1  1  0
 20 16  1  0
 29 23  1  0
M  END
$$$$
