
     RDKit          3D

 32 37  0  0  0  0  0  0  0  0999 V2000
  190.1109  161.4260  122.1123 C   0  0  2  0  0  0  0  0  0  0  0  0
  189.2043  162.5749  122.5325 C   0  0  0  0  0  0  0  0  0  0  0  0
  188.2958  162.8525  121.3487 C   0  0  0  0  0  0  0  0  0  0  0  0
  188.8036  161.8900  120.2608 C   0  0  1  0  0  0  0  0  0  0  0  0
  187.8595  161.6162  119.3145 O   0  0  0  0  0  0  0  0  0  0  0  0
  190.0660  162.3868  119.7185 C   0  0  0  0  0  0  0  0  0  0  0  0
  191.1197  162.7824  119.2785 C   0  0  0  0  0  0  0  0  0  0  0  0
  192.4098  163.2422  118.7482 C   0  0  0  0  0  0  0  0  0  0  0  0
  189.1516  160.7111  121.1488 C   0  0  2  0  0  0  0  0  0  0  0  0
  187.9041  160.3239  121.8696 C   0  0  0  0  0  0  0  0  0  0  0  0
  189.7611  159.5546  120.4596 C   0  0  0  0  0  0  0  0  0  0  0  0
  191.1254  159.2319  121.1140 C   0  0  2  0  0  0  0  0  0  0  0  0
  191.9119  158.3369  120.3161 C   0  0  0  0  0  0  0  0  0  0  0  0
  191.4503  157.1287  119.8685 C   0  0  0  0  0  0  0  0  0  0  0  0
  192.2793  156.2964  119.1598 C   0  0  0  0  0  0  0  0  0  0  0  0
  193.5863  156.6257  118.8697 C   0  0  0  0  0  0  0  0  0  0  0  0
  194.6433  156.0243  118.1980 O   0  0  0  0  0  0  0  0  0  0  0  0
  195.8488  156.6534  118.5721 C   0  0  0  0  0  0  0  0  0  0  0  0
  195.4022  157.9689  118.9133 O   0  0  0  0  0  0  0  0  0  0  0  0
  194.0682  157.8394  119.3132 C   0  0  0  0  0  0  0  0  0  0  0  0
  193.2265  158.6567  120.0186 C   0  0  0  0  0  0  0  0  0  0  0  0
  191.0173  159.2103  122.5361 C   0  0  0  0  0  0  0  0  0  0  0  0
  191.3224  158.2229  123.3298 C   0  0  0  0  0  0  0  0  0  0  0  0
  191.8281  156.9557  122.8377 C   0  0  0  0  0  0  0  0  0  0  0  0
  191.4153  155.8571  123.8150 C   0  0  0  0  0  0  0  0  0  0  0  0
  190.4376  156.2650  124.8251 C   0  0  0  0  0  0  0  0  0  0  0  0
  189.4226  155.6037  125.0646 O   0  0  0  0  0  0  0  0  0  0  0  0
  190.6969  157.4968  125.5595 C   0  0  0  0  0  0  0  0  0  0  0  0
  191.1514  158.4898  124.7878 C   0  0  0  0  0  0  0  0  0  0  0  0
  191.5263  159.8079  125.2963 C   0  0  0  0  0  0  0  0  0  0  0  0
  191.2867  160.9295  124.3034 C   0  0  0  0  0  0  0  0  0  0  0  0
  190.4322  160.4845  123.1743 C   0  0  1  0  0  0  0  0  0  0  0  0
  1  2  1  1
  2  3  1  0
  3  4  1  0
  4  5  1  6
  4  6  1  0
  6  7  3  0
  7  8  1  0
  4  9  1  0
  9 10  1  1
  9 11  1  0
 11 12  1  0
 12 13  1  6
 13 14  2  0
 14 15  1  0
 15 16  2  0
 16 17  1  0
 17 18  1  0
 18 19  1  0
 19 20  1  0
 20 21  2  0
 12 22  1  0
 22 23  2  0
 23 24  1  0
 24 25  1  0
 25 26  1  0
 26 27  2  0
 26 28  1  0
 28 29  2  0
 29 30  1  0
 30 31  1  0
 32 31  1  1
  9  1  1  0
 21 13  1  0
 32 22  1  0
 32  1  1  0
 20 16  1  0
 29 23  1  0
M  END
$$$$
