
     RDKit          3D

 32 37  0  0  0  0  0  0  0  0999 V2000
  131.1627  165.0455  152.4674 C   0  0  2  0  0  0  0  0  0  0  0  0
  129.8647  165.3287  151.7234 C   0  0  0  0  0  0  0  0  0  0  0  0
  130.1562  165.0826  150.2543 C   0  0  0  0  0  0  0  0  0  0  0  0
  131.6594  164.7547  150.2267 C   0  0  1  0  0  0  0  0  0  0  0  0
  132.0240  164.0377  149.1246 O   0  0  0  0  0  0  0  0  0  0  0  0
  132.4310  165.9796  150.4243 C   0  0  0  0  0  0  0  0  0  0  0  0
  133.0774  166.9846  150.6041 C   0  0  0  0  0  0  0  0  0  0  0  0
  133.8679  168.1989  150.8443 C   0  0  0  0  0  0  0  0  0  0  0  0
  131.7438  163.9790  151.5269 C   0  0  2  0  0  0  0  0  0  0  0  0
  130.7964  162.8321  151.4137 C   0  0  0  0  0  0  0  0  0  0  0  0
  133.0978  163.5283  151.9112 C   0  0  0  0  0  0  0  0  0  0  0  0
  133.4364  164.0735  153.3189 C   0  0  2  0  0  0  0  0  0  0  0  0
  134.8305  163.9460  153.6294 C   0  0  0  0  0  0  0  0  0  0  0  0
  135.3075  163.1234  154.6138 C   0  0  0  0  0  0  0  0  0  0  0  0
  136.6497  163.0969  154.8965 C   0  0  0  0  0  0  0  0  0  0  0  0
  137.5636  163.8777  154.2210 C   0  0  0  0  0  0  0  0  0  0  0  0
  138.9380  164.0746  154.2675 O   0  0  0  0  0  0  0  0  0  0  0  0
  139.2556  165.2855  153.6180 C   0  0  0  0  0  0  0  0  0  0  0  0
  138.1842  165.4062  152.6777 O   0  0  0  0  0  0  0  0  0  0  0  0
  137.1004  164.7127  153.2260 C   0  0  0  0  0  0  0  0  0  0  0  0
  135.7581  164.7255  152.9578 C   0  0  0  0  0  0  0  0  0  0  0  0
  132.3545  163.8593  154.2233 C   0  0  0  0  0  0  0  0  0  0  0  0
  132.3952  163.2137  155.3544 C   0  0  0  0  0  0  0  0  0  0  0  0
  133.6077  162.5943  155.8545 C   0  0  0  0  0  0  0  0  0  0  0  0
  133.2189  161.3960  156.7179 C   0  0  0  0  0  0  0  0  0  0  0  0
  131.8101  161.0073  156.6359 C   0  0  0  0  0  0  0  0  0  0  0  0
  131.4589  159.8377  156.4525 O   0  0  0  0  0  0  0  0  0  0  0  0
  130.8089  162.0564  156.7808 C   0  0  0  0  0  0  0  0  0  0  0  0
  131.1183  163.1802  156.1255 C   0  0  0  0  0  0  0  0  0  0  0  0
  130.2971  164.3891  156.1524 C   0  0  0  0  0  0  0  0  0  0  0  0
  130.3695  165.1979  154.8711 C   0  0  0  0  0  0  0  0  0  0  0  0
  130.9932  164.4211  153.7709 C   0  0  1  0  0  0  0  0  0  0  0  0
  1  2  1  6
  2  3  1  0
  3  4  1  0
  4  5  1  6
  4  6  1  0
  6  7  3  0
  7  8  1  0
  4  9  1  0
  9 10  1  6
  9 11  1  0
 11 12  1  0
 12 13  1  1
 13 14  2  0
 14 15  1  0
 15 16  2  0
 16 17  1  0
 17 18  1  0
 18 19  1  0
 19 20  1  0
 20 21  2  0
 12 22  1  0
 22 23  2  0
 23 24  1  0
 24 25  1  0
 25 26  1  0
 26 27  2  0
 26 28  1  0
 28 29  2  0
 29 30  1  0
 30 31  1  0
 32 31  1  1
  9  1  1  0
 21 13  1  0
 32 22  1  0
 32  1  1  0
 20 16  1  0
 29 23  1  0
M  END
$$$$
