
     RDKit          3D

 32 37  0  0  0  0  0  0  0  0999 V2000
  148.6274  175.2821  153.0855 C   0  0  2  0  0  0  0  0  0  0  0  0
  148.4195  175.7800  154.5093 C   0  0  0  0  0  0  0  0  0  0  0  0
  149.2412  177.0496  154.6384 C   0  0  0  0  0  0  0  0  0  0  0  0
  149.9620  177.1614  153.2834 C   0  0  1  0  0  0  0  0  0  0  0  0
  150.3507  178.4371  152.9950 O   0  0  0  0  0  0  0  0  0  0  0  0
  151.0422  176.1796  153.2215 C   0  0  0  0  0  0  0  0  0  0  0  0
  151.9323  175.3653  153.1506 C   0  0  0  0  0  0  0  0  0  0  0  0
  153.0220  174.3829  153.0854 C   0  0  0  0  0  0  0  0  0  0  0  0
  148.8517  176.6356  152.3946 C   0  0  2  0  0  0  0  0  0  0  0  0
  147.6668  177.5166  152.6082 C   0  0  0  0  0  0  0  0  0  0  0  0
  149.1882  176.5172  150.9604 C   0  0  0  0  0  0  0  0  0  0  0  0
  148.9537  175.0588  150.5003 C   0  0  2  0  0  0  0  0  0  0  0  0
  149.5453  174.7913  149.2217 C   0  0  0  0  0  0  0  0  0  0  0  0
  149.9969  175.7747  148.3838 C   0  0  0  0  0  0  0  0  0  0  0  0
  150.4970  175.4486  147.1485 C   0  0  0  0  0  0  0  0  0  0  0  0
  150.5684  174.1471  146.6992 C   0  0  0  0  0  0  0  0  0  0  0  0
  151.0049  173.5108  145.5441 O   0  0  0  0  0  0  0  0  0  0  0  0
  150.4594  172.2112  145.4957 C   0  0  0  0  0  0  0  0  0  0  0  0
  150.2804  171.9140  146.8836 O   0  0  0  0  0  0  0  0  0  0  0  0
  150.1176  173.1433  147.5306 C   0  0  0  0  0  0  0  0  0  0  0  0
  149.6221  173.4877  148.7594 C   0  0  0  0  0  0  0  0  0  0  0  0
  147.6911  174.5762  150.9557 C   0  0  0  0  0  0  0  0  0  0  0  0
  146.7229  174.1030  150.2232 C   0  0  0  0  0  0  0  0  0  0  0  0
  146.8123  174.0119  148.7784 C   0  0  0  0  0  0  0  0  0  0  0  0
  145.4044  174.1260  148.1978 C   0  0  0  0  0  0  0  0  0  0  0  0
  144.3751  174.5421  149.1519 C   0  0  0  0  0  0  0  0  0  0  0  0
  143.5716  175.4459  148.9019 O   0  0  0  0  0  0  0  0  0  0  0  0
  144.3185  173.8478  150.4320 C   0  0  0  0  0  0  0  0  0  0  0  0
  145.5225  173.6253  150.9695 C   0  0  0  0  0  0  0  0  0  0  0  0
  145.7318  172.9081  152.2258 C   0  0  0  0  0  0  0  0  0  0  0  0
  146.9454  173.3864  153.0002 C   0  0  0  0  0  0  0  0  0  0  0  0
  147.4528  174.6783  152.4743 C   0  0  1  0  0  0  0  0  0  0  0  0
  1  2  1  1
  2  3  1  0
  3  4  1  0
  4  5  1  6
  4  6  1  0
  6  7  3  0
  7  8  1  0
  4  9  1  0
  9 10  1  6
  9 11  1  0
 11 12  1  0
 12 13  1  6
 13 14  2  0
 14 15  1  0
 15 16  2  0
 16 17  1  0
 17 18  1  0
 18 19  1  0
 19 20  1  0
 20 21  2  0
 12 22  1  0
 22 23  2  0
 23 24  1  0
 24 25  1  0
 25 26  1  0
 26 27  2  0
 26 28  1  0
 28 29  2  0
 29 30  1  0
 30 31  1  0
 32 31  1  1
  9  1  1  0
 21 13  1  0
 32 22  1  0
 32  1  1  0
 20 16  1  0
 29 23  1  0
M  END
$$$$
