
     RDKit          3D

 32 37  0  0  0  0  0  0  0  0999 V2000
  192.4615  160.3758  132.1252 C   0  0  2  0  0  0  0  0  0  0  0  0
  193.0341  159.5523  133.2707 C   0  0  0  0  0  0  0  0  0  0  0  0
  192.6554  160.2812  134.5471 C   0  0  0  0  0  0  0  0  0  0  0  0
  191.9522  161.5559  134.0487 C   0  0  1  0  0  0  0  0  0  0  0  0
  191.1166  162.0978  134.9815 O   0  0  0  0  0  0  0  0  0  0  0  0
  192.9459  162.4892  133.5232 C   0  0  0  0  0  0  0  0  0  0  0  0
  193.7709  163.2488  133.0730 C   0  0  0  0  0  0  0  0  0  0  0  0
  194.7585  164.1898  132.5289 C   0  0  0  0  0  0  0  0  0  0  0  0
  191.2403  160.9645  132.8476 C   0  0  2  0  0  0  0  0  0  0  0  0
  190.3708  159.8629  133.3537 C   0  0  0  0  0  0  0  0  0  0  0  0
  190.4754  161.9255  132.0257 C   0  0  0  0  0  0  0  0  0  0  0  0
  190.9785  161.8602  130.5641 C   0  0  2  0  0  0  0  0  0  0  0  0
  190.5119  162.9662  129.7796 C   0  0  0  0  0  0  0  0  0  0  0  0
  191.3394  163.7507  129.0226 C   0  0  0  0  0  0  0  0  0  0  0  0
  190.8319  164.8299  128.3444 C   0  0  0  0  0  0  0  0  0  0  0  0
  189.4968  165.1711  128.3896 C   0  0  0  0  0  0  0  0  0  0  0  0
  188.7000  166.1661  127.8373 O   0  0  0  0  0  0  0  0  0  0  0  0
  187.4908  166.2460  128.5586 C   0  0  0  0  0  0  0  0  0  0  0  0
  187.3533  164.9109  129.0538 O   0  0  0  0  0  0  0  0  0  0  0  0
  188.6486  164.3915  129.1477 C   0  0  0  0  0  0  0  0  0  0  0  0
  189.1727  163.3187  129.8172 C   0  0  0  0  0  0  0  0  0  0  0  0
  191.0900  160.5086  130.1222 C   0  0  0  0  0  0  0  0  0  0  0  0
  190.5071  159.9722  129.0875 C   0  0  0  0  0  0  0  0  0  0  0  0
  189.6208  160.7214  128.2175 C   0  0  0  0  0  0  0  0  0  0  0  0
  188.6026  159.7554  127.6155 C   0  0  0  0  0  0  0  0  0  0  0  0
  188.5847  158.4220  128.2193 C   0  0  0  0  0  0  0  0  0  0  0  0
  187.5372  157.8749  128.5774 O   0  0  0  0  0  0  0  0  0  0  0  0
  189.8609  157.7393  128.3901 C   0  0  0  0  0  0  0  0  0  0  0  0
  190.8371  158.5400  128.8307 C   0  0  0  0  0  0  0  0  0  0  0  0
  192.2160  158.1019  129.0383 C   0  0  0  0  0  0  0  0  0  0  0  0
  192.9205  158.8356  130.1638 C   0  0  0  0  0  0  0  0  0  0  0  0
  191.9609  159.5941  131.0045 C   0  0  1  0  0  0  0  0  0  0  0  0
  1  2  1  1
  2  3  1  0
  3  4  1  0
  4  5  1  1
  4  6  1  0
  6  7  3  0
  7  8  1  0
  4  9  1  0
  9 10  1  1
  9 11  1  0
 11 12  1  0
 12 13  1  6
 13 14  2  0
 14 15  1  0
 15 16  2  0
 16 17  1  0
 17 18  1  0
 18 19  1  0
 19 20  1  0
 20 21  2  0
 12 22  1  0
 22 23  2  0
 23 24  1  0
 24 25  1  0
 25 26  1  0
 26 27  2  0
 26 28  1  0
 28 29  2  0
 29 30  1  0
 30 31  1  0
 32 31  1  6
  9  1  1  0
 21 13  1  0
 32 22  1  0
 32  1  1  0
 20 16  1  0
 29 23  1  0
M  END
$$$$
