
     RDKit          3D

 32 37  0  0  0  0  0  0  0  0999 V2000
  164.2965  148.9579  125.6167 C   0  0  2  0  0  0  0  0  0  0  0  0
  163.9453  149.5928  124.2780 C   0  0  0  0  0  0  0  0  0  0  0  0
  162.4428  149.8082  124.2925 C   0  0  0  0  0  0  0  0  0  0  0  0
  161.9946  149.1882  125.6277 C   0  0  1  0  0  0  0  0  0  0  0  0
  160.8047  149.6886  126.0698 O   0  0  0  0  0  0  0  0  0  0  0  0
  162.0289  147.7311  125.5264 C   0  0  0  0  0  0  0  0  0  0  0  0
  162.0643  146.5249  125.4612 C   0  0  0  0  0  0  0  0  0  0  0  0
  162.1306  145.0597  125.3858 C   0  0  0  0  0  0  0  0  0  0  0  0
  163.1881  149.5885  126.4730 C   0  0  2  0  0  0  0  0  0  0  0  0
  163.2860  151.0760  126.4140 C   0  0  0  0  0  0  0  0  0  0  0  0
  163.1709  149.1009  127.8680 C   0  0  0  0  0  0  0  0  0  0  0  0
  164.4566  148.2840  128.1386 C   0  0  2  0  0  0  0  0  0  0  0  0
  164.3717  147.5244  129.3519 C   0  0  0  0  0  0  0  0  0  0  0  0
  164.6230  148.0552  130.5882 C   0  0  0  0  0  0  0  0  0  0  0  0
  164.5815  147.2540  131.7011 C   0  0  0  0  0  0  0  0  0  0  0  0
  164.2920  145.9077  131.6332 C   0  0  0  0  0  0  0  0  0  0  0  0
  164.1764  144.8630  132.5415 O   0  0  0  0  0  0  0  0  0  0  0  0
  164.2600  143.6362  131.8509 C   0  0  0  0  0  0  0  0  0  0  0  0
  163.7690  143.9925  130.5553 O   0  0  0  0  0  0  0  0  0  0  0  0
  164.0361  145.3561  130.3954 C   0  0  0  0  0  0  0  0  0  0  0  0
  164.0820  146.1709  129.2963 C   0  0  0  0  0  0  0  0  0  0  0  0
  165.6101  148.9744  127.6623 C   0  0  0  0  0  0  0  0  0  0  0  0
  166.6586  149.3187  128.3554 C   0  0  0  0  0  0  0  0  0  0  0  0
  166.7837  149.0340  129.7720 C   0  0  0  0  0  0  0  0  0  0  0  0
  167.6671  150.1068  130.4055 C   0  0  0  0  0  0  0  0  0  0  0  0
  167.9531  151.2571  129.5467 C   0  0  0  0  0  0  0  0  0  0  0  0
  167.8209  152.4208  129.9383 O   0  0  0  0  0  0  0  0  0  0  0  0
  168.4095  150.9909  128.1886 C   0  0  0  0  0  0  0  0  0  0  0  0
  167.7446  149.9973  127.5897 C   0  0  0  0  0  0  0  0  0  0  0  0
  168.0459  149.5130  126.2439 C   0  0  0  0  0  0  0  0  0  0  0  0
  166.8295  148.9914  125.5026 C   0  0  0  0  0  0  0  0  0  0  0  0
  165.5686  149.3866  126.1785 C   0  0  1  0  0  0  0  0  0  0  0  0
  1  2  1  6
  2  3  1  0
  3  4  1  0
  4  5  1  1
  4  6  1  0
  6  7  3  0
  7  8  1  0
  4  9  1  0
  9 10  1  1
  9 11  1  0
 11 12  1  0
 12 13  1  1
 13 14  2  0
 14 15  1  0
 15 16  2  0
 16 17  1  0
 17 18  1  0
 18 19  1  0
 19 20  1  0
 20 21  2  0
 12 22  1  0
 22 23  2  0
 23 24  1  0
 24 25  1  0
 25 26  1  0
 26 27  2  0
 26 28  1  0
 28 29  2  0
 29 30  1  0
 30 31  1  0
 32 31  1  6
  9  1  1  0
 21 13  1  0
 32 22  1  0
 32  1  1  0
 20 16  1  0
 29 23  1  0
M  END
$$$$
