
     RDKit          3D

 32 37  0  0  0  0  0  0  0  0999 V2000
  188.4465  162.4644  139.2897 C   0  0  2  0  0  0  0  0  0  0  0  0
  189.3822  163.1853  140.2506 C   0  0  0  0  0  0  0  0  0  0  0  0
  190.0877  164.2527  139.4341 C   0  0  0  0  0  0  0  0  0  0  0  0
  189.5755  164.0197  138.0019 C   0  0  1  0  0  0  0  0  0  0  0  0
  189.6819  165.1295  137.2153 O   0  0  0  0  0  0  0  0  0  0  0  0
  190.2106  162.8285  137.4429 C   0  0  0  0  0  0  0  0  0  0  0  0
  190.7395  161.8368  136.9991 C   0  0  0  0  0  0  0  0  0  0  0  0
  191.3771  160.6200  136.4796 C   0  0  0  0  0  0  0  0  0  0  0  0
  188.1484  163.6299  138.3346 C   0  0  2  0  0  0  0  0  0  0  0  0
  187.5504  164.7670  139.0931 C   0  0  0  0  0  0  0  0  0  0  0  0
  187.3088  163.2466  137.1803 C   0  0  0  0  0  0  0  0  0  0  0  0
  186.7445  161.8245  137.4100 C   0  0  2  0  0  0  0  0  0  0  0  0
  186.1846  161.2632  136.2151 C   0  0  0  0  0  0  0  0  0  0  0  0
  186.4313  159.9822  135.8011 C   0  0  0  0  0  0  0  0  0  0  0  0
  185.9098  159.5311  134.6151 C   0  0  0  0  0  0  0  0  0  0  0  0
  185.1307  160.3246  133.8000 C   0  0  0  0  0  0  0  0  0  0  0  0
  184.4780  160.1711  132.5833 O   0  0  0  0  0  0  0  0  0  0  0  0
  184.1795  161.4434  132.0531 C   0  0  0  0  0  0  0  0  0  0  0  0
  184.0716  162.2390  133.2371 O   0  0  0  0  0  0  0  0  0  0  0  0
  184.8720  161.6183  134.2016 C   0  0  0  0  0  0  0  0  0  0  0  0
  185.4006  162.0509  135.3880 C   0  0  0  0  0  0  0  0  0  0  0  0
  186.2108  161.6933  138.7262 C   0  0  0  0  0  0  0  0  0  0  0  0
  184.9971  161.3450  139.0481 C   0  0  0  0  0  0  0  0  0  0  0  0
  183.9850  161.0400  138.0549 C   0  0  0  0  0  0  0  0  0  0  0  0
  182.6150  161.3754  138.6407 C   0  0  0  0  0  0  0  0  0  0  0  0
  182.6477  162.1305  139.8942 C   0  0  0  0  0  0  0  0  0  0  0  0
  181.9644  163.1438  140.0711 O   0  0  0  0  0  0  0  0  0  0  0  0
  183.5242  161.6466  140.9532 C   0  0  0  0  0  0  0  0  0  0  0  0
  184.7204  161.2447  140.5108 C   0  0  0  0  0  0  0  0  0  0  0  0
  185.7569  160.6779  141.3715 C   0  0  0  0  0  0  0  0  0  0  0  0
  187.1666  160.9837  140.9021 C   0  0  0  0  0  0  0  0  0  0  0  0
  187.1779  162.0510  139.8707 C   0  0  1  0  0  0  0  0  0  0  0  0
  1  2  1  1
  2  3  1  0
  3  4  1  0
  4  5  1  6
  4  6  1  0
  6  7  3  0
  7  8  1  0
  4  9  1  0
  9 10  1  1
  9 11  1  0
 11 12  1  0
 12 13  1  6
 13 14  2  0
 14 15  1  0
 15 16  2  0
 16 17  1  0
 17 18  1  0
 18 19  1  0
 19 20  1  0
 20 21  2  0
 12 22  1  0
 22 23  2  0
 23 24  1  0
 24 25  1  0
 25 26  1  0
 26 27  2  0
 26 28  1  0
 28 29  2  0
 29 30  1  0
 30 31  1  0
 32 31  1  1
  9  1  1  0
 21 13  1  0
 32 22  1  0
 32  1  1  0
 20 16  1  0
 29 23  1  0
M  END
$$$$
