
     RDKit          3D

 32 37  0  0  0  0  0  0  0  0999 V2000
  125.9265  154.9978  145.2398 C   0  0  2  0  0  0  0  0  0  0  0  0
  126.3545  156.4466  145.4300 C   0  0  0  0  0  0  0  0  0  0  0  0
  125.8003  157.2115  144.2418 C   0  0  0  0  0  0  0  0  0  0  0  0
  125.1511  156.1209  143.3718 C   0  0  1  0  0  0  0  0  0  0  0  0
  124.1921  156.6131  142.5352 O   0  0  0  0  0  0  0  0  0  0  0  0
  126.1922  155.3485  142.6978 C   0  0  0  0  0  0  0  0  0  0  0  0
  127.0396  154.6962  142.1351 C   0  0  0  0  0  0  0  0  0  0  0  0
  128.0619  153.8842  141.4625 C   0  0  0  0  0  0  0  0  0  0  0  0
  124.6125  155.2393  144.4818 C   0  0  2  0  0  0  0  0  0  0  0  0
  123.6994  156.0835  145.3060 C   0  0  0  0  0  0  0  0  0  0  0  0
  123.9492  153.9949  144.0397 C   0  0  0  0  0  0  0  0  0  0  0  0
  124.6418  152.7830  144.7071 C   0  0  2  0  0  0  0  0  0  0  0  0
  124.2673  151.5403  144.0973 C   0  0  0  0  0  0  0  0  0  0  0  0
  123.0026  151.0219  144.1667 C   0  0  0  0  0  0  0  0  0  0  0  0
  122.7305  149.7976  143.6105 C   0  0  0  0  0  0  0  0  0  0  0  0
  123.6923  149.0459  142.9697 C   0  0  0  0  0  0  0  0  0  0  0  0
  123.7351  147.8151  142.3268 O   0  0  0  0  0  0  0  0  0  0  0  0
  125.0764  147.3916  142.2242 C   0  0  0  0  0  0  0  0  0  0  0  0
  125.7792  148.6375  142.2069 O   0  0  0  0  0  0  0  0  0  0  0  0
  124.9724  149.5530  142.8905 C   0  0  0  0  0  0  0  0  0  0  0  0
  125.2251  150.7760  143.4510 C   0  0  0  0  0  0  0  0  0  0  0  0
  124.8297  153.0072  146.1030 C   0  0  0  0  0  0  0  0  0  0  0  0
  124.3963  152.2633  147.0811 C   0  0  0  0  0  0  0  0  0  0  0  0
  123.6221  151.0572  146.8583 C   0  0  0  0  0  0  0  0  0  0  0  0
  122.7060  150.8405  148.0610 C   0  0  0  0  0  0  0  0  0  0  0  0
  122.6274  151.9702  148.9885 C   0  0  0  0  0  0  0  0  0  0  0  0
  121.5497  152.4155  149.3948 O   0  0  0  0  0  0  0  0  0  0  0  0
  123.8794  152.5697  149.4325 C   0  0  0  0  0  0  0  0  0  0  0  0
  124.7774  152.7123  148.4520 C   0  0  0  0  0  0  0  0  0  0  0  0
  126.1229  153.2465  148.6536 C   0  0  0  0  0  0  0  0  0  0  0  0
  126.6622  153.9964  147.4502 C   0  0  0  0  0  0  0  0  0  0  0  0
  125.5894  154.2964  146.4695 C   0  0  1  0  0  0  0  0  0  0  0  0
  1  2  1  1
  2  3  1  0
  3  4  1  0
  4  5  1  6
  4  6  1  0
  6  7  3  0
  7  8  1  0
  4  9  1  0
  9 10  1  1
  9 11  1  0
 11 12  1  0
 12 13  1  1
 13 14  2  0
 14 15  1  0
 15 16  2  0
 16 17  1  0
 17 18  1  0
 18 19  1  0
 19 20  1  0
 20 21  2  0
 12 22  1  0
 22 23  2  0
 23 24  1  0
 24 25  1  0
 25 26  1  0
 26 27  2  0
 26 28  1  0
 28 29  2  0
 29 30  1  0
 30 31  1  0
 32 31  1  6
  9  1  1  0
 21 13  1  0
 32 22  1  0
 32  1  1  0
 20 16  1  0
 29 23  1  0
M  END
$$$$
