
     RDKit          3D

 32 37  0  0  0  0  0  0  0  0999 V2000
  188.0181  178.0587  124.2664 C   0  0  2  0  0  0  0  0  0  0  0  0
  186.8762  178.1729  123.2655 C   0  0  0  0  0  0  0  0  0  0  0  0
  185.8115  177.1931  123.7239 C   0  0  0  0  0  0  0  0  0  0  0  0
  186.4531  176.4910  124.9336 C   0  0  1  0  0  0  0  0  0  0  0  0
  185.5310  175.9480  125.7801 O   0  0  0  0  0  0  0  0  0  0  0  0
  187.4671  175.5467  124.4700 C   0  0  0  0  0  0  0  0  0  0  0  0
  188.3008  174.7534  124.1015 C   0  0  0  0  0  0  0  0  0  0  0  0
  189.3013  173.7718  123.6628 C   0  0  0  0  0  0  0  0  0  0  0  0
  187.2018  177.6768  125.5103 C   0  0  2  0  0  0  0  0  0  0  0  0
  186.1898  178.7348  125.7973 C   0  0  0  0  0  0  0  0  0  0  0  0
  188.0346  177.3867  126.6962 C   0  0  0  0  0  0  0  0  0  0  0  0
  189.4938  177.8150  126.4117 C   0  0  2  0  0  0  0  0  0  0  0  0
  190.4125  177.2879  127.3785 C   0  0  0  0  0  0  0  0  0  0  0  0
  190.3956  177.6426  128.7003 C   0  0  0  0  0  0  0  0  0  0  0  0
  191.3436  177.1439  129.5575 C   0  0  0  0  0  0  0  0  0  0  0  0
  192.3366  176.2823  129.1421 C   0  0  0  0  0  0  0  0  0  0  0  0
  193.4049  175.6255  129.7400 O   0  0  0  0  0  0  0  0  0  0  0  0
  194.3077  175.2039  128.7420 C   0  0  0  0  0  0  0  0  0  0  0  0
  193.4454  175.0446  127.6116 O   0  0  0  0  0  0  0  0  0  0  0  0
  192.3688  175.9143  127.8134 C   0  0  0  0  0  0  0  0  0  0  0  0
  191.4147  176.4217  126.9730 C   0  0  0  0  0  0  0  0  0  0  0  0
  189.5405  179.1196  125.8372 C   0  0  0  0  0  0  0  0  0  0  0  0
  190.1856  180.1548  126.2957 C   0  0  0  0  0  0  0  0  0  0  0  0
  190.9698  180.1064  127.5149 C   0  0  0  0  0  0  0  0  0  0  0  0
  190.9783  181.4994  128.1410 C   0  0  0  0  0  0  0  0  0  0  0  0
  190.0333  182.4478  127.5492 C   0  0  0  0  0  0  0  0  0  0  0  0
  189.2707  183.1339  128.2367 O   0  0  0  0  0  0  0  0  0  0  0  0
  190.0144  182.5675  126.0969 C   0  0  0  0  0  0  0  0  0  0  0  0
  190.0959  181.3914  125.4657 C   0  0  0  0  0  0  0  0  0  0  0  0
  190.1407  181.2508  124.0116 C   0  0  0  0  0  0  0  0  0  0  0  0
  189.5009  179.9708  123.5079 C   0  0  0  0  0  0  0  0  0  0  0  0
  188.6932  179.3128  124.5651 C   0  0  1  0  0  0  0  0  0  0  0  0
  1  2  1  6
  2  3  1  0
  3  4  1  0
  4  5  1  1
  4  6  1  0
  6  7  3  0
  7  8  1  0
  4  9  1  0
  9 10  1  1
  9 11  1  0
 11 12  1  0
 12 13  1  1
 13 14  2  0
 14 15  1  0
 15 16  2  0
 16 17  1  0
 17 18  1  0
 18 19  1  0
 19 20  1  0
 20 21  2  0
 12 22  1  0
 22 23  2  0
 23 24  1  0
 24 25  1  0
 25 26  1  0
 26 27  2  0
 26 28  1  0
 28 29  2  0
 29 30  1  0
 30 31  1  0
 32 31  1  6
  9  1  1  0
 21 13  1  0
 32 22  1  0
 32  1  1  0
 20 16  1  0
 29 23  1  0
M  END
$$$$
