
     RDKit          3D

 32 37  0  0  0  0  0  0  0  0999 V2000
  188.6293  161.0473  123.7229 C   0  0  2  0  0  0  0  0  0  0  0  0
  187.4271  161.7559  124.3319 C   0  0  0  0  0  0  0  0  0  0  0  0
  186.4433  161.9730  123.1967 C   0  0  0  0  0  0  0  0  0  0  0  0
  187.1896  161.4491  121.9571 C   0  0  1  0  0  0  0  0  0  0  0  0
  186.3475  161.0945  120.9437 O   0  0  0  0  0  0  0  0  0  0  0  0
  188.2229  162.4057  121.5677 C   0  0  0  0  0  0  0  0  0  0  0  0
  189.0653  163.2119  121.2503 C   0  0  0  0  0  0  0  0  0  0  0  0
  190.0964  164.1772  120.8477 C   0  0  0  0  0  0  0  0  0  0  0  0
  187.9073  160.2807  122.6044 C   0  0  2  0  0  0  0  0  0  0  0  0
  186.8598  159.3952  123.1910 C   0  0  0  0  0  0  0  0  0  0  0  0
  188.8214  159.5278  121.7203 C   0  0  0  0  0  0  0  0  0  0  0  0
  190.2373  159.5138  122.3436 C   0  0  2  0  0  0  0  0  0  0  0  0
  191.2366  159.0801  121.4110 C   0  0  0  0  0  0  0  0  0  0  0  0
  192.3172  159.8435  121.0606 C   0  0  0  0  0  0  0  0  0  0  0  0
  193.2020  159.3889  120.1157 C   0  0  0  0  0  0  0  0  0  0  0  0
  193.0518  158.1713  119.4867 C   0  0  0  0  0  0  0  0  0  0  0  0
  193.7469  157.4514  118.5230 O   0  0  0  0  0  0  0  0  0  0  0  0
  192.9021  156.4574  117.9872 C   0  0  0  0  0  0  0  0  0  0  0  0
  192.0094  156.2093  119.0772 O   0  0  0  0  0  0  0  0  0  0  0  0
  191.9684  157.3889  119.8276 C   0  0  0  0  0  0  0  0  0  0  0  0
  191.0964  157.8588  120.7724 C   0  0  0  0  0  0  0  0  0  0  0  0
  190.1824  159.1769  123.7284 C   0  0  0  0  0  0  0  0  0  0  0  0
  190.7981  158.1925  124.3200 C   0  0  0  0  0  0  0  0  0  0  0  0
  191.6529  157.2655  123.6035 C   0  0  0  0  0  0  0  0  0  0  0  0
  191.6248  155.9214  124.3283 C   0  0  0  0  0  0  0  0  0  0  0  0
  190.5990  155.8008  125.3655 C   0  0  0  0  0  0  0  0  0  0  0  0
  189.8426  154.8271  125.4340 O   0  0  0  0  0  0  0  0  0  0  0  0
  190.4899  156.8804  126.3383 C   0  0  0  0  0  0  0  0  0  0  0  0
  190.5960  158.0978  125.7953 C   0  0  0  0  0  0  0  0  0  0  0  0
  190.5639  159.3381  126.5681 C   0  0  0  0  0  0  0  0  0  0  0  0
  189.9638  160.5072  125.8103 C   0  0  0  0  0  0  0  0  0  0  0  0
  189.2541  160.0570  124.5869 C   0  0  1  0  0  0  0  0  0  0  0  0
  1  2  1  1
  2  3  1  0
  3  4  1  0
  4  5  1  6
  4  6  1  0
  6  7  3  0
  7  8  1  0
  4  9  1  0
  9 10  1  1
  9 11  1  0
 11 12  1  0
 12 13  1  6
 13 14  2  0
 14 15  1  0
 15 16  2  0
 16 17  1  0
 17 18  1  0
 18 19  1  0
 19 20  1  0
 20 21  2  0
 12 22  1  0
 22 23  2  0
 23 24  1  0
 24 25  1  0
 25 26  1  0
 26 27  2  0
 26 28  1  0
 28 29  2  0
 29 30  1  0
 30 31  1  0
 32 31  1  1
  9  1  1  0
 21 13  1  0
 32 22  1  0
 32  1  1  0
 20 16  1  0
 29 23  1  0
M  END
$$$$
