
     RDKit          3D

 32 37  0  0  0  0  0  0  0  0999 V2000
  129.2730  141.8351  134.8788 C   0  0  2  0  0  0  0  0  0  0  0  0
  130.4933  140.9978  135.2369 C   0  0  0  0  0  0  0  0  0  0  0  0
  131.5424  141.9720  135.7409 C   0  0  0  0  0  0  0  0  0  0  0  0
  130.8853  143.3508  135.5535 C   0  0  1  0  0  0  0  0  0  0  0  0
  131.4197  144.3062  136.3680 O   0  0  0  0  0  0  0  0  0  0  0  0
  130.8875  143.7051  134.1361 C   0  0  0  0  0  0  0  0  0  0  0  0
  130.8810  144.0157  132.9683 C   0  0  0  0  0  0  0  0  0  0  0  0
  130.8495  144.3941  131.5496 C   0  0  0  0  0  0  0  0  0  0  0  0
  129.4592  142.9685  135.8988 C   0  0  2  0  0  0  0  0  0  0  0  0
  129.4796  142.4082  137.2814 C   0  0  0  0  0  0  0  0  0  0  0  0
  128.4615  144.0508  135.7667 C   0  0  0  0  0  0  0  0  0  0  0  0
  127.3420  143.5972  134.7999 C   0  0  2  0  0  0  0  0  0  0  0  0
  126.5127  144.6889  134.3795 C   0  0  0  0  0  0  0  0  0  0  0  0
  126.0150  144.8071  133.1101 C   0  0  0  0  0  0  0  0  0  0  0  0
  125.2774  145.9101  132.7613 C   0  0  0  0  0  0  0  0  0  0  0  0
  125.0069  146.9300  133.6487 C   0  0  0  0  0  0  0  0  0  0  0  0
  124.3167  148.1349  133.6067 O   0  0  0  0  0  0  0  0  0  0  0  0
  124.7212  148.9396  134.6920 C   0  0  0  0  0  0  0  0  0  0  0  0
  125.1126  147.9589  135.6572 O   0  0  0  0  0  0  0  0  0  0  0  0
  125.5008  146.8274  134.9323 C   0  0  0  0  0  0  0  0  0  0  0  0
  126.2343  145.7197  135.2621 C   0  0  0  0  0  0  0  0  0  0  0  0
  126.8950  142.2806  135.1179 C   0  0  0  0  0  0  0  0  0  0  0  0
  125.6773  141.9144  135.4026 C   0  0  0  0  0  0  0  0  0  0  0  0
  124.5708  142.8514  135.4406 C   0  0  0  0  0  0  0  0  0  0  0  0
  123.5341  142.3366  136.4370 C   0  0  0  0  0  0  0  0  0  0  0  0
  123.9822  141.2219  137.2733 C   0  0  0  0  0  0  0  0  0  0  0  0
  123.8324  141.2161  138.4991 O   0  0  0  0  0  0  0  0  0  0  0  0
  124.6220  140.0928  136.6102 C   0  0  0  0  0  0  0  0  0  0  0  0
  125.4835  140.4565  135.6543 C   0  0  0  0  0  0  0  0  0  0  0  0
  126.2163  139.5087  134.8172 C   0  0  0  0  0  0  0  0  0  0  0  0
  127.5806  140.0124  134.3855 C   0  0  0  0  0  0  0  0  0  0  0  0
  127.9948  141.2030  135.1689 C   0  0  1  0  0  0  0  0  0  0  0  0
  1  2  1  1
  2  3  1  0
  3  4  1  0
  4  5  1  1
  4  6  1  0
  6  7  3  0
  7  8  1  0
  4  9  1  0
  9 10  1  1
  9 11  1  0
 11 12  1  0
 12 13  1  1
 13 14  2  0
 14 15  1  0
 15 16  2  0
 16 17  1  0
 17 18  1  0
 18 19  1  0
 19 20  1  0
 20 21  2  0
 12 22  1  0
 22 23  2  0
 23 24  1  0
 24 25  1  0
 25 26  1  0
 26 27  2  0
 26 28  1  0
 28 29  2  0
 29 30  1  0
 30 31  1  0
 32 31  1  6
  9  1  1  0
 21 13  1  0
 32 22  1  0
 32  1  1  0
 20 16  1  0
 29 23  1  0
M  END
$$$$
