
     RDKit          3D

 32 37  0  0  0  0  0  0  0  0999 V2000
  192.6974  157.3370  118.0809 C   0  0  2  0  0  0  0  0  0  0  0  0
  192.3105  155.8902  118.3557 C   0  0  0  0  0  0  0  0  0  0  0  0
  191.9335  155.8241  119.8245 C   0  0  0  0  0  0  0  0  0  0  0  0
  192.2192  157.2447  120.3425 C   0  0  1  0  0  0  0  0  0  0  0  0
  191.5128  157.5483  121.4698 O   0  0  0  0  0  0  0  0  0  0  0  0
  193.6616  157.4375  120.4716 C   0  0  0  0  0  0  0  0  0  0  0  0
  194.8520  157.6167  120.5775 C   0  0  0  0  0  0  0  0  0  0  0  0
  196.2968  157.8324  120.7294 C   0  0  0  0  0  0  0  0  0  0  0  0
  191.7899  158.0223  119.1135 C   0  0  2  0  0  0  0  0  0  0  0  0
  190.3645  157.6696  118.8492 C   0  0  0  0  0  0  0  0  0  0  0  0
  191.9817  159.4857  119.1885 C   0  0  0  0  0  0  0  0  0  0  0  0
  192.8632  159.9459  118.0032 C   0  0  2  0  0  0  0  0  0  0  0  0
  193.3489  161.2841  118.1755 C   0  0  0  0  0  0  0  0  0  0  0  0
  193.7556  162.0742  117.1346 C   0  0  0  0  0  0  0  0  0  0  0  0
  194.2660  163.3239  117.3794 C   0  0  0  0  0  0  0  0  0  0  0  0
  194.3924  163.8349  118.6537 C   0  0  0  0  0  0  0  0  0  0  0  0
  194.8532  165.0193  119.2148 O   0  0  0  0  0  0  0  0  0  0  0  0
  195.1130  164.8132  120.5855 C   0  0  0  0  0  0  0  0  0  0  0  0
  194.2018  163.7572  120.9035 O   0  0  0  0  0  0  0  0  0  0  0  0
  193.9874  163.0522  119.7146 C   0  0  0  0  0  0  0  0  0  0  0  0
  193.4806  161.8082  119.4511 C   0  0  0  0  0  0  0  0  0  0  0  0
  192.4131  159.3700  116.7784 C   0  0  0  0  0  0  0  0  0  0  0  0
  192.0532  160.0061  115.6995 C   0  0  0  0  0  0  0  0  0  0  0  0
  192.0588  161.4537  115.6103 C   0  0  0  0  0  0  0  0  0  0  0  0
  190.9837  161.8818  114.6136 C   0  0  0  0  0  0  0  0  0  0  0  0
  190.0682  160.8178  114.1984 C   0  0  0  0  0  0  0  0  0  0  0  0
  188.8422  160.9655  114.2001 O   0  0  0  0  0  0  0  0  0  0  0  0
  190.6507  159.5519  113.7716 C   0  0  0  0  0  0  0  0  0  0  0  0
  191.6657  159.1474  114.5424 C   0  0  0  0  0  0  0  0  0  0  0  0
  192.4411  157.9334  114.2943 C   0  0  0  0  0  0  0  0  0  0  0  0
  192.9649  157.2814  115.5599 C   0  0  0  0  0  0  0  0  0  0  0  0
  192.3062  157.8332  116.7700 C   0  0  1  0  0  0  0  0  0  0  0  0
  1  2  1  6
  2  3  1  0
  3  4  1  0
  4  5  1  1
  4  6  1  0
  6  7  3  0
  7  8  1  0
  4  9  1  0
  9 10  1  6
  9 11  1  0
 11 12  1  0
 12 13  1  6
 13 14  2  0
 14 15  1  0
 15 16  2  0
 16 17  1  0
 17 18  1  0
 18 19  1  0
 19 20  1  0
 20 21  2  0
 12 22  1  0
 22 23  2  0
 23 24  1  0
 24 25  1  0
 25 26  1  0
 26 27  2  0
 26 28  1  0
 28 29  2  0
 29 30  1  0
 30 31  1  0
 32 31  1  6
  9  1  1  0
 21 13  1  0
 32 22  1  0
 32  1  1  0
 20 16  1  0
 29 23  1  0
M  END
$$$$
