
     RDKit          3D

 32 37  0  0  0  0  0  0  0  0999 V2000
  119.8648  166.5989  144.1144 C   0  0  2  0  0  0  0  0  0  0  0  0
  120.9355  167.0694  145.0893 C   0  0  0  0  0  0  0  0  0  0  0  0
  120.9801  168.5820  144.9720 C   0  0  0  0  0  0  0  0  0  0  0  0
  119.9773  168.8941  143.8473 C   0  0  1  0  0  0  0  0  0  0  0  0
  119.4976  170.1702  143.9058 O   0  0  0  0  0  0  0  0  0  0  0  0
  120.5613  168.5342  142.5574 C   0  0  0  0  0  0  0  0  0  0  0  0
  121.0554  168.2226  141.4995 C   0  0  0  0  0  0  0  0  0  0  0  0
  121.6533  167.8660  140.2063 C   0  0  0  0  0  0  0  0  0  0  0  0
  118.9458  167.8288  144.1644 C   0  0  2  0  0  0  0  0  0  0  0  0
  118.4903  168.0649  145.5653 C   0  0  0  0  0  0  0  0  0  0  0  0
  117.8046  167.7509  143.2287 C   0  0  0  0  0  0  0  0  0  0  0  0
  117.7148  166.3180  142.6520 C   0  0  2  0  0  0  0  0  0  0  0  0
  116.8415  166.2435  141.5170 C   0  0  0  0  0  0  0  0  0  0  0  0
  115.8046  167.1125  141.3102 C   0  0  0  0  0  0  0  0  0  0  0  0
  114.9721  166.9446  140.2327 C   0  0  0  0  0  0  0  0  0  0  0  0
  115.1329  165.9182  139.3264 C   0  0  0  0  0  0  0  0  0  0  0  0
  114.4841  165.4906  138.1748 O   0  0  0  0  0  0  0  0  0  0  0  0
  114.8507  164.1560  137.9040 C   0  0  0  0  0  0  0  0  0  0  0  0
  116.1514  164.0811  138.4949 O   0  0  0  0  0  0  0  0  0  0  0  0
  116.1727  165.0330  139.5195 C   0  0  0  0  0  0  0  0  0  0  0  0
  116.9931  165.2164  140.5999 C   0  0  0  0  0  0  0  0  0  0  0  0
  117.8274  165.3430  143.6869 C   0  0  0  0  0  0  0  0  0  0  0  0
  116.9703  164.4050  143.9759 C   0  0  0  0  0  0  0  0  0  0  0  0
  115.7278  164.2339  143.2475 C   0  0  0  0  0  0  0  0  0  0  0  0
  114.6948  163.6189  144.1894 C   0  0  0  0  0  0  0  0  0  0  0  0
  115.0863  163.5883  145.5995 C   0  0  0  0  0  0  0  0  0  0  0  0
  114.3379  163.9810  146.4998 O   0  0  0  0  0  0  0  0  0  0  0  0
  116.4093  163.0701  145.9236 C   0  0  0  0  0  0  0  0  0  0  0  0
  117.3641  163.4902  145.0869 C   0  0  0  0  0  0  0  0  0  0  0  0
  118.7627  163.0747  145.1752 C   0  0  0  0  0  0  0  0  0  0  0  0
  119.7396  164.1364  144.7063 C   0  0  0  0  0  0  0  0  0  0  0  0
  119.0825  165.4605  144.5725 C   0  0  1  0  0  0  0  0  0  0  0  0
  1  2  1  1
  2  3  1  0
  3  4  1  0
  4  5  1  6
  4  6  1  0
  6  7  3  0
  7  8  1  0
  4  9  1  0
  9 10  1  1
  9 11  1  0
 11 12  1  0
 12 13  1  1
 13 14  2  0
 14 15  1  0
 15 16  2  0
 16 17  1  0
 17 18  1  0
 18 19  1  0
 19 20  1  0
 20 21  2  0
 12 22  1  0
 22 23  2  0
 23 24  1  0
 24 25  1  0
 25 26  1  0
 26 27  2  0
 26 28  1  0
 28 29  2  0
 29 30  1  0
 30 31  1  0
 32 31  1  6
  9  1  1  0
 21 13  1  0
 32 22  1  0
 32  1  1  0
 20 16  1  0
 29 23  1  0
M  END
$$$$
