
     RDKit          3D

 32 37  0  0  0  0  0  0  0  0999 V2000
  150.1597  176.3249  152.5717 C   0  0  2  0  0  0  0  0  0  0  0  0
  151.2652  176.4276  153.6136 C   0  0  0  0  0  0  0  0  0  0  0  0
  150.6375  176.0322  154.9378 C   0  0  0  0  0  0  0  0  0  0  0  0
  149.1550  175.8092  154.5908 C   0  0  1  0  0  0  0  0  0  0  0  0
  148.5198  174.9953  155.4829 O   0  0  0  0  0  0  0  0  0  0  0  0
  148.5004  177.0997  154.3888 C   0  0  0  0  0  0  0  0  0  0  0  0
  147.9434  178.1606  154.2325 C   0  0  0  0  0  0  0  0  0  0  0  0
  147.2837  179.4606  154.0544 C   0  0  0  0  0  0  0  0  0  0  0  0
  149.3359  175.1989  153.2145 C   0  0  2  0  0  0  0  0  0  0  0  0
  150.1840  173.9832  153.3837 C   0  0  0  0  0  0  0  0  0  0  0  0
  148.0871  174.8920  152.4863 C   0  0  0  0  0  0  0  0  0  0  0  0
  148.1004  175.6206  151.1215 C   0  0  2  0  0  0  0  0  0  0  0  0
  146.8092  175.6281  150.4977 C   0  0  0  0  0  0  0  0  0  0  0  0
  146.3182  176.7001  149.8028 C   0  0  0  0  0  0  0  0  0  0  0  0
  145.0492  176.6590  149.2831 C   0  0  0  0  0  0  0  0  0  0  0  0
  144.2244  175.5641  149.4305 C   0  0  0  0  0  0  0  0  0  0  0  0
  142.9358  175.2231  149.0389 O   0  0  0  0  0  0  0  0  0  0  0  0
  142.4852  174.1387  149.8197 C   0  0  0  0  0  0  0  0  0  0  0  0
  143.7132  173.4870  150.1571 O   0  0  0  0  0  0  0  0  0  0  0  0
  144.7029  174.4749  150.1281 C   0  0  0  0  0  0  0  0  0  0  0  0
  145.9715  174.5339  150.6392 C   0  0  0  0  0  0  0  0  0  0  0  0
  149.3496  175.4387  150.4577 C   0  0  0  0  0  0  0  0  0  0  0  0
  149.5400  174.9343  149.2713 C   0  0  0  0  0  0  0  0  0  0  0  0
  148.4481  174.4640  148.4405 C   0  0  0  0  0  0  0  0  0  0  0  0
  148.9725  173.3509  147.5358 C   0  0  0  0  0  0  0  0  0  0  0  0
  150.3083  172.8577  147.8750 C   0  0  0  0  0  0  0  0  0  0  0  0
  150.5594  171.6530  147.9778 O   0  0  0  0  0  0  0  0  0  0  0  0
  151.3591  173.8439  148.0916 C   0  0  0  0  0  0  0  0  0  0  0  0
  150.9562  174.9022  148.8029 C   0  0  0  0  0  0  0  0  0  0  0  0
  151.8119  176.0455  149.1146 C   0  0  0  0  0  0  0  0  0  0  0  0
  151.4841  176.7018  150.4424 C   0  0  0  0  0  0  0  0  0  0  0  0
  150.5947  175.8470  151.2678 C   0  0  1  0  0  0  0  0  0  0  0  0
  1  2  1  1
  2  3  1  0
  3  4  1  0
  4  5  1  1
  4  6  1  0
  6  7  3  0
  7  8  1  0
  4  9  1  0
  9 10  1  1
  9 11  1  0
 11 12  1  0
 12 13  1  6
 13 14  2  0
 14 15  1  0
 15 16  2  0
 16 17  1  0
 17 18  1  0
 18 19  1  0
 19 20  1  0
 20 21  2  0
 12 22  1  0
 22 23  2  0
 23 24  1  0
 24 25  1  0
 25 26  1  0
 26 27  2  0
 26 28  1  0
 28 29  2  0
 29 30  1  0
 30 31  1  0
 32 31  1  6
  9  1  1  0
 21 13  1  0
 32 22  1  0
 32  1  1  0
 20 16  1  0
 29 23  1  0
M  END
$$$$
