
     RDKit          3D

 32 37  0  0  0  0  0  0  0  0999 V2000
  187.0611  162.1641  139.2673 C   0  0  2  0  0  0  0  0  0  0  0  0
  186.7963  162.4956  140.7296 C   0  0  0  0  0  0  0  0  0  0  0  0
  187.3520  163.8899  140.9554 C   0  0  0  0  0  0  0  0  0  0  0  0
  187.9997  164.2511  139.6071 C   0  0  1  0  0  0  0  0  0  0  0  0
  188.1189  165.5977  139.4217 O   0  0  0  0  0  0  0  0  0  0  0  0
  189.2517  163.5140  139.4527 C   0  0  0  0  0  0  0  0  0  0  0  0
  190.2805  162.8970  139.3077 C   0  0  0  0  0  0  0  0  0  0  0  0
  191.5409  162.1663  139.1224 C   0  0  0  0  0  0  0  0  0  0  0  0
  186.9930  163.5856  138.6890 C   0  0  2  0  0  0  0  0  0  0  0  0
  185.6626  164.1912  138.9871 C   0  0  0  0  0  0  0  0  0  0  0  0
  187.3080  163.6512  137.2465 C   0  0  0  0  0  0  0  0  0  0  0  0
  187.3564  162.2166  136.6693 C   0  0  2  0  0  0  0  0  0  0  0  0
  187.9552  162.1756  135.3669 C   0  0  0  0  0  0  0  0  0  0  0  0
  189.0794  161.4493  135.0809 C   0  0  0  0  0  0  0  0  0  0  0  0
  189.6322  161.5046  133.8264 C   0  0  0  0  0  0  0  0  0  0  0  0
  189.0976  162.2750  132.8156 C   0  0  0  0  0  0  0  0  0  0  0  0
  189.4086  162.5370  131.4872 O   0  0  0  0  0  0  0  0  0  0  0  0
  188.7426  163.7107  131.0775 C   0  0  0  0  0  0  0  0  0  0  0  0
  187.5961  163.7139  131.9332 O   0  0  0  0  0  0  0  0  0  0  0  0
  187.9648  163.0134  133.0863 C   0  0  0  0  0  0  0  0  0  0  0  0
  187.4272  162.9456  134.3435 C   0  0  0  0  0  0  0  0  0  0  0  0
  186.2277  161.4561  137.0959 C   0  0  0  0  0  0  0  0  0  0  0  0
  185.3539  160.8580  136.3365 C   0  0  0  0  0  0  0  0  0  0  0  0
  185.4212  160.9015  134.8883 C   0  0  0  0  0  0  0  0  0  0  0  0
  184.0037  160.7767  134.3336 C   0  0  0  0  0  0  0  0  0  0  0  0
  182.9380  160.9008  135.3294 C   0  0  0  0  0  0  0  0  0  0  0  0
  181.9644  161.6420  135.1636 O   0  0  0  0  0  0  0  0  0  0  0  0
  183.0549  160.1099  136.5479 C   0  0  0  0  0  0  0  0  0  0  0  0
  184.2929  160.0915  137.0528 C   0  0  0  0  0  0  0  0  0  0  0  0
  184.6742  159.3334  138.2429 C   0  0  0  0  0  0  0  0  0  0  0  0
  185.7885  159.9824  139.0419 C   0  0  0  0  0  0  0  0  0  0  0  0
  186.0144  161.3874  138.6201 C   0  0  1  0  0  0  0  0  0  0  0  0
  1  2  1  1
  2  3  1  0
  3  4  1  0
  4  5  1  6
  4  6  1  0
  6  7  3  0
  7  8  1  0
  4  9  1  0
  9 10  1  6
  9 11  1  0
 11 12  1  0
 12 13  1  6
 13 14  2  0
 14 15  1  0
 15 16  2  0
 16 17  1  0
 17 18  1  0
 18 19  1  0
 19 20  1  0
 20 21  2  0
 12 22  1  0
 22 23  2  0
 23 24  1  0
 24 25  1  0
 25 26  1  0
 26 27  2  0
 26 28  1  0
 28 29  2  0
 29 30  1  0
 30 31  1  0
 32 31  1  1
  9  1  1  0
 21 13  1  0
 32 22  1  0
 32  1  1  0
 20 16  1  0
 29 23  1  0
M  END
$$$$
