
     RDKit          3D

 32 37  0  0  0  0  0  0  0  0999 V2000
  192.0422  160.9153  122.9323 C   0  0  2  0  0  0  0  0  0  0  0  0
  191.8473  161.8683  124.1038 C   0  0  0  0  0  0  0  0  0  0  0  0
  192.3215  163.2289  123.6265 C   0  0  0  0  0  0  0  0  0  0  0  0
  192.8586  162.9561  122.2105 C   0  0  1  0  0  0  0  0  0  0  0  0
  192.8758  164.0733  121.4273 O   0  0  0  0  0  0  0  0  0  0  0  0
  194.1450  162.2691  122.2992 C   0  0  0  0  0  0  0  0  0  0  0  0
  195.2131  161.7065  122.3537 C   0  0  0  0  0  0  0  0  0  0  0  0
  196.5023  161.0051  122.4076 C   0  0  0  0  0  0  0  0  0  0  0  0
  191.8435  161.9142  121.7823 C   0  0  2  0  0  0  0  0  0  0  0  0
  190.4967  162.5473  121.8875 C   0  0  0  0  0  0  0  0  0  0  0  0
  192.0631  161.3252  120.4448 C   0  0  0  0  0  0  0  0  0  0  0  0
  192.1712  159.7874  120.5762 C   0  0  2  0  0  0  0  0  0  0  0  0
  192.6892  159.1762  119.3870 C   0  0  0  0  0  0  0  0  0  0  0  0
  192.3359  159.5719  118.1254 C   0  0  0  0  0  0  0  0  0  0  0  0
  192.8251  158.9016  117.0328 C   0  0  0  0  0  0  0  0  0  0  0  0
  193.6757  157.8225  117.1467 C   0  0  0  0  0  0  0  0  0  0  0  0
  194.3215  156.9615  116.2683 O   0  0  0  0  0  0  0  0  0  0  0  0
  194.7326  155.8078  116.9675 C   0  0  0  0  0  0  0  0  0  0  0  0
  194.9001  156.3114  118.2960 O   0  0  0  0  0  0  0  0  0  0  0  0
  194.0421  157.4100  118.4106 C   0  0  0  0  0  0  0  0  0  0  0  0
  193.5443  158.0910  119.4888 C   0  0  0  0  0  0  0  0  0  0  0  0
  191.1246  159.2701  121.3955 C   0  0  0  0  0  0  0  0  0  0  0  0
  190.2471  158.3646  121.0664 C   0  0  0  0  0  0  0  0  0  0  0  0
  190.2212  157.7456  119.7550 C   0  0  0  0  0  0  0  0  0  0  0  0
  188.7834  157.3375  119.4403 C   0  0  0  0  0  0  0  0  0  0  0  0
  187.7759  157.8684  120.3599 C   0  0  0  0  0  0  0  0  0  0  0  0
  186.7464  158.4218  119.9613 O   0  0  0  0  0  0  0  0  0  0  0  0
  188.0208  157.7237  121.7892 C   0  0  0  0  0  0  0  0  0  0  0  0
  189.2863  157.9760  122.1397 C   0  0  0  0  0  0  0  0  0  0  0  0
  189.7906  157.8559  123.5063 C   0  0  0  0  0  0  0  0  0  0  0  0
  190.9066  158.8321  123.8270 C   0  0  0  0  0  0  0  0  0  0  0  0
  191.0115  159.8968  122.7983 C   0  0  1  0  0  0  0  0  0  0  0  0
  1  2  1  1
  2  3  1  0
  3  4  1  0
  4  5  1  6
  4  6  1  0
  6  7  3  0
  7  8  1  0
  4  9  1  0
  9 10  1  6
  9 11  1  0
 11 12  1  0
 12 13  1  6
 13 14  2  0
 14 15  1  0
 15 16  2  0
 16 17  1  0
 17 18  1  0
 18 19  1  0
 19 20  1  0
 20 21  2  0
 12 22  1  0
 22 23  2  0
 23 24  1  0
 24 25  1  0
 25 26  1  0
 26 27  2  0
 26 28  1  0
 28 29  2  0
 29 30  1  0
 30 31  1  0
 32 31  1  1
  9  1  1  0
 21 13  1  0
 32 22  1  0
 32  1  1  0
 20 16  1  0
 29 23  1  0
M  END
$$$$
