
     RDKit          3D

 59 67  0  0  0  0  0  0  0  0999 V2000
  172.1257  167.3673  105.0331 C   0  0  0  0  0  0  0  0  0  0  0  0
  172.1213  166.4657  106.2595 C   0  0  0  0  0  0  0  0  0  0  0  0
  172.3870  165.0102  105.8223 C   0  0  1  0  0  0  0  0  0  0  0  0
  172.9476  165.1395  104.4578 C   0  0  0  0  0  0  0  0  0  0  0  0
  174.2063  164.9188  104.2009 C   0  0  0  0  0  0  0  0  0  0  0  0
  175.1390  164.5244  105.2778 C   0  0  0  0  0  0  0  0  0  0  0  0
  174.5854  164.0941  106.4611 N   0  0  0  0  0  0  0  0  0  0  0  0
  175.1368  163.0304  107.1980 C   0  0  0  0  0  0  0  0  0  0  0  0
  174.0070  162.0626  107.3670 C   0  0  0  0  0  0  0  0  0  0  0  0
  172.7883  162.9502  107.2728 C   0  0  1  0  0  0  0  0  0  0  0  0
  173.2267  164.2779  106.7861 C   0  0  2  0  0  0  0  0  0  0  0  0
  171.7222  162.2107  106.5536 C   0  0  1  0  0  0  0  0  0  0  0  0
  170.7543  161.8174  107.5187 N   0  0  0  0  0  0  0  0  0  0  0  0
  169.6360  160.9137  107.3894 C   0  0  0  0  0  0  0  0  0  0  0  0
  171.0327  162.4550  108.7821 C   0  0  0  0  0  0  0  0  0  0  0  0
  170.3887  162.5162  109.9854 C   0  0  0  0  0  0  0  0  0  0  0  0
  170.9252  163.2174  111.0723 C   0  0  0  0  0  0  0  0  0  0  0  0
  170.1930  163.2215  112.2473 O   0  0  0  0  0  0  0  0  0  0  0  0
  169.7052  162.0132  112.7769 C   0  0  0  0  0  0  0  0  0  0  0  0
  172.1500  163.8804  110.9516 C   0  0  0  0  0  0  0  0  0  0  0  0
  172.7545  163.7950  109.7425 C   0  0  0  0  0  0  0  0  0  0  0  0
  172.2127  163.0912  108.6535 C   0  0  0  0  0  0  0  0  0  0  0  0
  172.7558  164.5638  112.1039 C   0  0  1  0  0  0  0  0  0  0  0  0
  172.4554  163.9593  113.4397 C   0  0  0  0  0  0  0  0  0  0  0  0
  173.2135  162.8166  113.9668 C   0  0  2  0  0  0  0  0  0  0  0  0
  173.6157  162.9416  115.4307 C   0  0  0  0  0  0  0  0  0  0  0  0
  174.9691  163.4388  115.6375 C   0  0  2  0  0  0  0  0  0  0  0  0
  175.6068  163.7514  114.3329 C   0  0  0  0  0  0  0  0  0  0  0  0
  175.6856  162.4579  113.4932 N   0  0  0  0  0  0  0  0  0  0  0  0
  174.1883  162.2112  113.1373 C   0  0  0  0  0  0  0  0  0  0  0  0
  176.0801  163.1534  112.1312 C   0  0  0  0  0  0  0  0  0  0  0  0
  175.4086  164.3867  111.9175 C   0  0  0  0  0  0  0  0  0  0  0  0
  174.1599  164.9946  111.8951 C   0  0  0  0  0  0  0  0  0  0  0  0
  174.3530  166.3017  111.6111 N   0  0  0  0  0  0  0  0  0  0  0  0
  175.6377  166.6119  111.4406 C   0  0  0  0  0  0  0  0  0  0  0  0
  176.2827  167.7913  111.1429 C   0  0  0  0  0  0  0  0  0  0  0  0
  177.6496  167.8176  111.0220 C   0  0  0  0  0  0  0  0  0  0  0  0
  178.3597  166.6695  111.1989 C   0  0  0  0  0  0  0  0  0  0  0  0
  177.6945  165.4947  111.4975 C   0  0  0  0  0  0  0  0  0  0  0  0
  176.3091  165.4205  111.6299 C   0  0  0  0  0  0  0  0  0  0  0  0
  175.9258  162.5129  116.3509 C   0  0  0  0  0  0  0  0  0  0  0  0
  177.1797  162.3458  115.5276 C   0  0  0  0  0  0  0  0  0  0  0  0
  175.3518  161.2568  116.4489 F   0  0  0  0  0  0  0  0  0  0  0  0
  176.2567  163.0319  117.5748 F   0  0  0  0  0  0  0  0  0  0  0  0
  171.9144  165.8438  112.2183 C   0  0  0  0  0  0  0  0  0  0  0  0
  171.3487  166.2043  113.2460 O   0  0  0  0  0  0  0  0  0  0  0  0
  171.7717  166.6722  111.0851 O   0  0  0  0  0  0  0  0  0  0  0  0
  171.9915  168.0546  111.1915 C   0  0  0  0  0  0  0  0  0  0  0  0
  171.2419  162.9472  105.3466 C   0  0  2  0  0  0  0  0  0  0  0  0
  172.3701  162.9023  104.4645 O   0  0  0  0  0  0  0  0  0  0  0  0
  171.0137  164.3728  105.8041 C   0  0  2  0  0  0  0  0  0  0  0  0
  170.0676  165.0470  105.0269 O   0  0  0  0  0  0  0  0  0  0  0  0
  169.9171  164.7731  103.6761 C   0  0  0  0  0  0  0  0  0  0  0  0
  170.0506  163.4142  103.1030 C   0  0  0  0  0  0  0  0  0  0  0  0
  169.6534  165.7208  102.8911 O   0  0  0  0  0  0  0  0  0  0  0  0
  170.1364  162.3847  104.6083 C   0  0  0  0  0  0  0  0  0  0  0  0
  170.2591  161.3054  103.9896 O   0  0  0  0  0  0  0  0  0  0  0  0
  168.9101  163.0157  104.5551 O   0  0  0  0  0  0  0  0  0  0  0  0
  167.8840  162.7895  105.5094 C   0  0  0  0  0  0  0  0  0  0  0  0
  1  2  1  0
  3  2  1  1
  3  4  1  0
  4  5  2  0
  5  6  1  0
  6  7  1  0
  7  8  1  0
  8  9  1  0
 10  9  1  1
 10 11  1  0
 10 12  1  0
 12 13  1  1
 13 14  1  0
 13 15  1  0
 15 16  2  0
 16 17  1  0
 17 18  1  0
 18 19  1  0
 17 20  2  0
 20 21  1  0
 21 22  2  0
 20 23  1  0
 23 24  1  0
 25 24  1  6
 25 26  1  0
 26 27  1  0
 27 28  1  0
 29 28  1  1
 29 30  1  0
 29 31  1  0
 31 32  1  0
 32 33  2  0
 33 34  1  0
 34 35  1  0
 35 36  2  0
 36 37  1  0
 37 38  2  0
 38 39  1  0
 39 40  2  0
 27 41  1  6
 41 42  1  0
 41 43  1  0
 41 44  1  0
 23 45  1  1
 45 46  2  0
 45 47  1  0
 47 48  1  0
 12 49  1  0
 49 50  1  6
 49 51  1  0
 51 52  1  6
 52 53  1  0
 53 54  1  0
 53 55  2  0
 49 56  1  0
 56 57  2  0
 56 58  1  0
 58 59  1  0
 11  3  1  0
 22 15  1  0
 33 23  1  0
 40 35  1  0
 51  3  1  0
 11  7  1  6
 30 25  1  0
 40 32  1  0
 22 10  1  0
M  END
$$$$
