
     RDKit          3D

 59 67  0  0  0  0  0  0  0  0999 V2000
  168.7346  148.2139  131.1872 C   0  0  0  0  0  0  0  0  0  0  0  0
  167.8664  148.1446  129.9388 C   0  0  0  0  0  0  0  0  0  0  0  0
  167.9701  149.4793  129.1719 C   0  0  1  0  0  0  0  0  0  0  0  0
  169.0311  150.2252  129.8867 C   0  0  0  0  0  0  0  0  0  0  0  0
  170.2139  150.4131  129.3724 C   0  0  0  0  0  0  0  0  0  0  0  0
  170.5489  149.8813  128.0344 C   0  0  0  0  0  0  0  0  0  0  0  0
  169.5016  149.4773  127.2395 N   0  0  0  0  0  0  0  0  0  0  0  0
  169.4868  149.7098  125.8522 C   0  0  0  0  0  0  0  0  0  0  0  0
  168.2049  150.4431  125.6062 C   0  0  0  0  0  0  0  0  0  0  0  0
  167.3341  149.9911  126.7548 C   0  0  1  0  0  0  0  0  0  0  0  0
  168.1949  149.2829  127.7293 C   0  0  2  0  0  0  0  0  0  0  0  0
  166.5029  151.1383  127.1948 C   0  0  1  0  0  0  0  0  0  0  0  0
  165.1766  150.8999  126.7395 N   0  0  0  0  0  0  0  0  0  0  0  0
  164.0345  151.7826  126.7200 C   0  0  0  0  0  0  0  0  0  0  0  0
  165.0682  149.5577  126.2229 C   0  0  0  0  0  0  0  0  0  0  0  0
  164.0350  148.7879  125.7687 C   0  0  0  0  0  0  0  0  0  0  0  0
  164.2401  147.4861  125.2954 C   0  0  0  0  0  0  0  0  0  0  0  0
  163.1269  146.7874  124.8602 O   0  0  0  0  0  0  0  0  0  0  0  0
  162.1884  147.4119  124.0189 C   0  0  0  0  0  0  0  0  0  0  0  0
  165.5246  146.9347  125.2748 C   0  0  0  0  0  0  0  0  0  0  0  0
  166.5196  147.7309  125.7340 C   0  0  0  0  0  0  0  0  0  0  0  0
  166.3100  149.0366  126.2094 C   0  0  0  0  0  0  0  0  0  0  0  0
  165.7627  145.5947  124.7187 C   0  0  1  0  0  0  0  0  0  0  0  0
  165.4172  145.4291  123.2719 C   0  0  0  0  0  0  0  0  0  0  0  0
  166.3401  145.8248  122.1996 C   0  0  2  0  0  0  0  0  0  0  0  0
  166.4711  144.8131  121.0682 C   0  0  0  0  0  0  0  0  0  0  0  0
  167.6152  143.9206  121.1950 C   0  0  2  0  0  0  0  0  0  0  0  0
  168.3499  144.2025  122.4548 C   0  0  0  0  0  0  0  0  0  0  0  0
  168.8679  145.6566  122.4160 N   0  0  0  0  0  0  0  0  0  0  0  0
  167.5479  146.4743  122.5521 C   0  0  0  0  0  0  0  0  0  0  0  0
  169.2854  145.7379  123.9369 C   0  0  0  0  0  0  0  0  0  0  0  0
  168.3754  145.0751  124.8032 C   0  0  0  0  0  0  0  0  0  0  0  0
  167.0352  144.9664  125.1511 C   0  0  0  0  0  0  0  0  0  0  0  0
  166.9463  144.0360  126.1273 N   0  0  0  0  0  0  0  0  0  0  0  0
  168.1277  143.5161  126.4584 C   0  0  0  0  0  0  0  0  0  0  0  0
  168.5049  142.5642  127.3788 C   0  0  0  0  0  0  0  0  0  0  0  0
  169.8264  142.2174  127.5094 C   0  0  0  0  0  0  0  0  0  0  0  0
  170.7582  142.8220  126.7221 C   0  0  0  0  0  0  0  0  0  0  0  0
  170.3605  143.7756  125.8033 C   0  0  0  0  0  0  0  0  0  0  0  0
  169.0311  144.1592  125.6359 C   0  0  0  0  0  0  0  0  0  0  0  0
  168.6471  143.9870  120.0941 C   0  0  0  0  0  0  0  0  0  0  0  0
  168.7358  145.3980  119.5657 C   0  0  0  0  0  0  0  0  0  0  0  0
  168.2310  143.1981  119.0352 F   0  0  0  0  0  0  0  0  0  0  0  0
  169.8726  143.6089  120.5759 F   0  0  0  0  0  0  0  0  0  0  0  0
  164.6285  144.7650  125.3390 C   0  0  0  0  0  0  0  0  0  0  0  0
  164.6309  144.3549  126.4958 O   0  0  0  0  0  0  0  0  0  0  0  0
  163.5040  144.4451  124.5492 O   0  0  0  0  0  0  0  0  0  0  0  0
  162.2772  144.1424  125.1608 C   0  0  0  0  0  0  0  0  0  0  0  0
  166.6960  151.4515  128.6421 C   0  0  2  0  0  0  0  0  0  0  0  0
  168.0419  151.9399  128.6952 O   0  0  0  0  0  0  0  0  0  0  0  0
  166.6117  150.1210  129.3609 C   0  0  2  0  0  0  0  0  0  0  0  0
  166.2067  150.2487  130.6925 O   0  0  0  0  0  0  0  0  0  0  0  0
  166.7124  151.2504  131.5069 C   0  0  0  0  0  0  0  0  0  0  0  0
  167.6109  152.3203  131.0161 C   0  0  0  0  0  0  0  0  0  0  0  0
  166.3966  151.2584  132.7252 O   0  0  0  0  0  0  0  0  0  0  0  0
  165.8738  152.4852  129.2245 C   0  0  0  0  0  0  0  0  0  0  0  0
  166.2416  153.6799  129.2169 O   0  0  0  0  0  0  0  0  0  0  0  0
  164.6590  152.1944  129.8115 O   0  0  0  0  0  0  0  0  0  0  0  0
  164.1027  152.9730  130.8598 C   0  0  0  0  0  0  0  0  0  0  0  0
  1  2  1  0
  3  2  1  1
  3  4  1  0
  4  5  2  0
  5  6  1  0
  6  7  1  0
  7  8  1  0
  8  9  1  0
 10  9  1  6
 10 11  1  0
 10 12  1  0
 12 13  1  1
 13 14  1  0
 13 15  1  0
 15 16  2  0
 16 17  1  0
 17 18  1  0
 18 19  1  0
 17 20  2  0
 20 21  1  0
 21 22  2  0
 20 23  1  0
 23 24  1  0
 25 24  1  1
 25 26  1  0
 26 27  1  0
 27 28  1  0
 29 28  1  1
 29 30  1  0
 29 31  1  0
 31 32  1  0
 32 33  2  0
 33 34  1  0
 34 35  1  0
 35 36  2  0
 36 37  1  0
 37 38  2  0
 38 39  1  0
 39 40  2  0
 27 41  1  6
 41 42  1  0
 41 43  1  0
 41 44  1  0
 23 45  1  1
 45 46  2  0
 45 47  1  0
 47 48  1  0
 12 49  1  0
 49 50  1  6
 49 51  1  0
 51 52  1  1
 52 53  1  0
 53 54  1  0
 53 55  2  0
 49 56  1  0
 56 57  2  0
 56 58  1  0
 58 59  1  0
 11  3  1  0
 22 15  1  0
 33 23  1  0
 40 35  1  0
 51  3  1  0
 11  7  1  6
 30 25  1  0
 40 32  1  0
 22 10  1  0
M  END
$$$$
