
     RDKit          3D

 59 67  0  0  0  0  0  0  0  0999 V2000
  176.6761  168.6556  107.3825 C   0  0  0  0  0  0  0  0  0  0  0  0
  175.5287  167.6709  107.5574 C   0  0  0  0  0  0  0  0  0  0  0  0
  175.8096  166.4075  106.7176 C   0  0  1  0  0  0  0  0  0  0  0  0
  177.1110  166.6870  106.0688 C   0  0  0  0  0  0  0  0  0  0  0  0
  178.2093  166.0843  106.4284 C   0  0  0  0  0  0  0  0  0  0  0  0
  178.1998  165.0821  107.5150 C   0  0  0  0  0  0  0  0  0  0  0  0
  176.9763  164.5848  107.8993 N   0  0  0  0  0  0  0  0  0  0  0  0
  176.7957  163.2319  108.2397 C   0  0  0  0  0  0  0  0  0  0  0  0
  175.6909  162.7619  107.3454 C   0  0  0  0  0  0  0  0  0  0  0  0
  174.9328  164.0350  107.0514 C   0  0  1  0  0  0  0  0  0  0  0  0
  175.7535  165.1741  107.5213 C   0  0  2  0  0  0  0  0  0  0  0  0
  174.4630  163.9887  105.6451 C   0  0  1  0  0  0  0  0  0  0  0  0
  173.0625  163.7425  105.6740 N   0  0  0  0  0  0  0  0  0  0  0  0
  172.1615  163.4075  104.5970 C   0  0  0  0  0  0  0  0  0  0  0  0
  172.5728  163.8478  107.0266 C   0  0  0  0  0  0  0  0  0  0  0  0
  171.3338  163.8129  107.6009 C   0  0  0  0  0  0  0  0  0  0  0  0
  171.1615  163.9250  108.9861 C   0  0  0  0  0  0  0  0  0  0  0  0
  169.8646  163.8812  109.4688 O   0  0  0  0  0  0  0  0  0  0  0  0
  169.0536  162.7621  109.2070 C   0  0  0  0  0  0  0  0  0  0  0  0
  172.2680  164.0767  109.8269 C   0  0  0  0  0  0  0  0  0  0  0  0
  173.4771  164.1069  109.2169 C   0  0  0  0  0  0  0  0  0  0  0  0
  173.6463  163.9952  107.8264 C   0  0  0  0  0  0  0  0  0  0  0  0
  172.1057  164.1285  111.2872 C   0  0  1  0  0  0  0  0  0  0  0  0
  171.1192  163.1587  111.8585 C   0  0  0  0  0  0  0  0  0  0  0  0
  171.4742  161.7619  112.1432 C   0  0  2  0  0  0  0  0  0  0  0  0
  170.9805  161.2419  113.4872 C   0  0  0  0  0  0  0  0  0  0  0  0
  171.9719  161.3051  114.5525 C   0  0  2  0  0  0  0  0  0  0  0  0
  173.2260  161.9236  114.0513 C   0  0  0  0  0  0  0  0  0  0  0  0
  173.7917  161.0508  112.9101 N   0  0  0  0  0  0  0  0  0  0  0  0
  172.7597  161.3010  111.7691 C   0  0  0  0  0  0  0  0  0  0  0  0
  174.8687  162.0908  112.4073 C   0  0  0  0  0  0  0  0  0  0  0  0
  174.4070  163.4338  112.4382 C   0  0  0  0  0  0  0  0  0  0  0  0
  173.3743  164.2740  112.0424 C   0  0  0  0  0  0  0  0  0  0  0  0
  173.6651  165.5125  112.4984 N   0  0  0  0  0  0  0  0  0  0  0  0
  174.8160  165.5624  113.1681 C   0  0  0  0  0  0  0  0  0  0  0  0
  175.4909  166.5880  113.7913 C   0  0  0  0  0  0  0  0  0  0  0  0
  176.6881  166.3451  114.4170 C   0  0  0  0  0  0  0  0  0  0  0  0
  177.2005  165.0838  114.4156 C   0  0  0  0  0  0  0  0  0  0  0  0
  176.5084  164.0666  113.7847 C   0  0  0  0  0  0  0  0  0  0  0  0
  175.2905  164.2663  113.1372 C   0  0  0  0  0  0  0  0  0  0  0  0
  172.3815  159.9896  115.1711 C   0  0  0  0  0  0  0  0  0  0  0  0
  171.3012  158.9613  114.9395 C   0  0  0  0  0  0  0  0  0  0  0  0
  172.4843  160.1468  116.5429 F   0  0  0  0  0  0  0  0  0  0  0  0
  173.5502  159.5494  114.6077 F   0  0  0  0  0  0  0  0  0  0  0  0
  171.3180  165.4310  111.4936 C   0  0  0  0  0  0  0  0  0  0  0  0
  170.3674  165.5444  112.2615 O   0  0  0  0  0  0  0  0  0  0  0  0
  171.6948  166.5807  110.7678 O   0  0  0  0  0  0  0  0  0  0  0  0
  170.9370  167.7579  110.8707 C   0  0  0  0  0  0  0  0  0  0  0  0
  174.9479  165.1564  104.8505 C   0  0  2  0  0  0  0  0  0  0  0  0
  176.3605  164.9322  104.7665 O   0  0  0  0  0  0  0  0  0  0  0  0
  174.6791  166.3736  105.7109 C   0  0  2  0  0  0  0  0  0  0  0  0
  174.5288  167.5444  104.9624 O   0  0  0  0  0  0  0  0  0  0  0  0
  175.2603  167.7584  103.8042 C   0  0  0  0  0  0  0  0  0  0  0  0
  176.7276  167.9577  103.7953 C   0  0  0  0  0  0  0  0  0  0  0  0
  174.6548  167.7857  102.7012 O   0  0  0  0  0  0  0  0  0  0  0  0
  174.4836  165.2866  103.4899 C   0  0  0  0  0  0  0  0  0  0  0  0
  175.2834  165.5141  102.5566 O   0  0  0  0  0  0  0  0  0  0  0  0
  173.1461  165.1689  103.1707 O   0  0  0  0  0  0  0  0  0  0  0  0
  172.5272  165.9328  102.1469 C   0  0  0  0  0  0  0  0  0  0  0  0
  1  2  1  0
  3  2  1  1
  3  4  1  0
  4  5  2  0
  5  6  1  0
  6  7  1  0
  7  8  1  0
  8  9  1  0
 10  9  1  1
 10 11  1  0
 10 12  1  0
 12 13  1  1
 13 14  1  0
 13 15  1  0
 15 16  2  0
 16 17  1  0
 17 18  1  0
 18 19  1  0
 17 20  2  0
 20 21  1  0
 21 22  2  0
 20 23  1  0
 23 24  1  0
 25 24  1  1
 25 26  1  0
 26 27  1  0
 27 28  1  0
 29 28  1  1
 29 30  1  0
 29 31  1  0
 31 32  1  0
 32 33  2  0
 33 34  1  0
 34 35  1  0
 35 36  2  0
 36 37  1  0
 37 38  2  0
 38 39  1  0
 39 40  2  0
 27 41  1  6
 41 42  1  0
 41 43  1  0
 41 44  1  0
 23 45  1  6
 45 46  2  0
 45 47  1  0
 47 48  1  0
 12 49  1  0
 49 50  1  6
 49 51  1  0
 51 52  1  6
 52 53  1  0
 53 54  1  0
 53 55  2  0
 49 56  1  0
 56 57  2  0
 56 58  1  0
 58 59  1  0
 11  3  1  0
 22 15  1  0
 33 23  1  0
 40 35  1  0
 51  3  1  0
 11  7  1  6
 30 25  1  0
 40 32  1  0
 22 10  1  0
M  END
$$$$
