
     RDKit          3D

 59 67  0  0  0  0  0  0  0  0999 V2000
  160.5994  148.8183  130.9301 C   0  0  0  0  0  0  0  0  0  0  0  0
  161.9825  148.4516  131.4492 C   0  0  0  0  0  0  0  0  0  0  0  0
  162.1995  146.9324  131.2906 C   0  0  1  0  0  0  0  0  0  0  0  0
  160.8531  146.3516  131.4973 C   0  0  0  0  0  0  0  0  0  0  0  0
  160.1563  145.8490  130.5171 C   0  0  0  0  0  0  0  0  0  0  0  0
  160.6902  145.8381  129.1387 C   0  0  0  0  0  0  0  0  0  0  0  0
  162.0370  146.0717  128.9856 N   0  0  0  0  0  0  0  0  0  0  0  0
  162.8102  145.3777  128.0373 C   0  0  0  0  0  0  0  0  0  0  0  0
  163.9272  144.7734  128.8304 C   0  0  0  0  0  0  0  0  0  0  0  0
  164.0359  145.7013  130.0174 C   0  0  1  0  0  0  0  0  0  0  0  0
  162.8499  146.5875  130.0145 C   0  0  2  0  0  0  0  0  0  0  0  0
  164.3553  144.8924  131.2191 C   0  0  1  0  0  0  0  0  0  0  0  0
  165.7224  145.1249  131.5353 N   0  0  0  0  0  0  0  0  0  0  0  0
  166.5821  144.4424  132.4729 C   0  0  0  0  0  0  0  0  0  0  0  0
  166.2353  146.2078  130.7325 C   0  0  0  0  0  0  0  0  0  0  0  0
  167.4140  146.8974  130.6970 C   0  0  0  0  0  0  0  0  0  0  0  0
  167.6416  147.9180  129.7655 C   0  0  0  0  0  0  0  0  0  0  0  0
  168.8682  148.5583  129.8143 O   0  0  0  0  0  0  0  0  0  0  0  0
  170.0403  147.8170  130.0488 C   0  0  0  0  0  0  0  0  0  0  0  0
  166.6553  148.2605  128.8359 C   0  0  0  0  0  0  0  0  0  0  0  0
  165.5024  147.5529  128.9060 C   0  0  0  0  0  0  0  0  0  0  0  0
  165.2770  146.5300  129.8428 C   0  0  0  0  0  0  0  0  0  0  0  0
  166.9063  149.2839  127.8106 C   0  0  1  0  0  0  0  0  0  0  0  0
  168.3044  149.8160  127.7633 C   0  0  0  0  0  0  0  0  0  0  0  0
  169.3814  149.1163  127.0499 C   0  0  2  0  0  0  0  0  0  0  0  0
  170.2686  150.0153  126.1985 C   0  0  0  0  0  0  0  0  0  0  0  0
  169.8945  150.0635  124.7916 C   0  0  2  0  0  0  0  0  0  0  0  0
  168.6811  149.2404  124.5539 C   0  0  0  0  0  0  0  0  0  0  0  0
  168.9917  147.7743  124.9259 N   0  0  0  0  0  0  0  0  0  0  0  0
  169.1035  147.8508  126.4787 C   0  0  0  0  0  0  0  0  0  0  0  0
  167.4996  147.2587  124.8800 C   0  0  0  0  0  0  0  0  0  0  0  0
  166.5676  148.1954  125.4014 C   0  0  0  0  0  0  0  0  0  0  0  0
  166.2814  149.0027  126.4948 C   0  0  0  0  0  0  0  0  0  0  0  0
  165.1399  149.6700  126.2153 N   0  0  0  0  0  0  0  0  0  0  0  0
  164.6414  149.3674  125.0171 C   0  0  0  0  0  0  0  0  0  0  0  0
  163.5235  149.7929  124.3354 C   0  0  0  0  0  0  0  0  0  0  0  0
  163.2489  149.2981  123.0851 C   0  0  0  0  0  0  0  0  0  0  0  0
  164.0903  148.3850  122.5267 C   0  0  0  0  0  0  0  0  0  0  0  0
  165.2083  147.9697  123.2264 C   0  0  0  0  0  0  0  0  0  0  0  0
  165.5269  148.4444  124.4975 C   0  0  0  0  0  0  0  0  0  0  0  0
  170.9247  149.5713  123.8028 C   0  0  0  0  0  0  0  0  0  0  0  0
  171.9546  150.6486  123.5640 C   0  0  0  0  0  0  0  0  0  0  0  0
  170.3091  149.3415  122.5842 F   0  0  0  0  0  0  0  0  0  0  0  0
  171.5478  148.4533  124.2914 F   0  0  0  0  0  0  0  0  0  0  0  0
  166.1927  150.5179  128.3828 C   0  0  0  0  0  0  0  0  0  0  0  0
  165.2993  151.1258  127.8011 O   0  0  0  0  0  0  0  0  0  0  0  0
  166.5698  150.9977  129.6548 O   0  0  0  0  0  0  0  0  0  0  0  0
  165.9492  152.1377  130.1896 C   0  0  0  0  0  0  0  0  0  0  0  0
  163.3485  145.0772  132.3064 C   0  0  2  0  0  0  0  0  0  0  0  0
  162.1679  144.4708  131.7667 O   0  0  0  0  0  0  0  0  0  0  0  0
  163.1423  146.5734  132.4197 C   0  0  2  0  0  0  0  0  0  0  0  0
  162.7091  146.9666  133.6891 O   0  0  0  0  0  0  0  0  0  0  0  0
  162.4095  146.0333  134.6697 C   0  0  0  0  0  0  0  0  0  0  0  0
  161.0286  145.7383  135.1156 C   0  0  0  0  0  0  0  0  0  0  0  0
  163.3523  145.4006  135.2126 O   0  0  0  0  0  0  0  0  0  0  0  0
  163.5912  144.4220  133.5695 C   0  0  0  0  0  0  0  0  0  0  0  0
  162.9390  143.4095  133.9043 O   0  0  0  0  0  0  0  0  0  0  0  0
  164.5447  144.8882  134.4516 O   0  0  0  0  0  0  0  0  0  0  0  0
  165.6481  144.1049  134.8801 C   0  0  0  0  0  0  0  0  0  0  0  0
  1  2  1  0
  3  2  1  6
  3  4  1  0
  4  5  2  0
  5  6  1  0
  6  7  1  0
  7  8  1  0
  8  9  1  0
 10  9  1  6
 10 11  1  0
 10 12  1  0
 12 13  1  1
 13 14  1  0
 13 15  1  0
 15 16  2  0
 16 17  1  0
 17 18  1  0
 18 19  1  0
 17 20  2  0
 20 21  1  0
 21 22  2  0
 20 23  1  0
 23 24  1  0
 25 24  1  6
 25 26  1  0
 26 27  1  0
 27 28  1  0
 29 28  1  6
 29 30  1  0
 29 31  1  0
 31 32  1  0
 32 33  2  0
 33 34  1  0
 34 35  1  0
 35 36  2  0
 36 37  1  0
 37 38  2  0
 38 39  1  0
 39 40  2  0
 27 41  1  6
 41 42  1  0
 41 43  1  0
 41 44  1  0
 23 45  1  1
 45 46  2  0
 45 47  1  0
 47 48  1  0
 12 49  1  0
 49 50  1  6
 49 51  1  0
 51 52  1  1
 52 53  1  0
 53 54  1  0
 53 55  2  0
 49 56  1  0
 56 57  2  0
 56 58  1  0
 58 59  1  0
 11  3  1  0
 22 15  1  0
 33 23  1  0
 40 35  1  0
 51  3  1  0
 11  7  1  6
 30 25  1  0
 40 32  1  0
 22 10  1  0
M  END
$$$$
