
     RDKit          3D

 59 67  0  0  0  0  0  0  0  0999 V2000
  148.7840  168.8520  138.1545 C   0  0  0  0  0  0  0  0  0  0  0  0
  148.7899  169.4059  136.7367 C   0  0  0  0  0  0  0  0  0  0  0  0
  150.1749  169.1642  136.1015 C   0  0  1  0  0  0  0  0  0  0  0  0
  150.9327  168.4442  137.1504 C   0  0  0  0  0  0  0  0  0  0  0  0
  151.2208  167.1768  137.0520 C   0  0  0  0  0  0  0  0  0  0  0  0
  150.7964  166.3953  135.8711 C   0  0  0  0  0  0  0  0  0  0  0  0
  150.3851  167.1025  134.7654 N   0  0  0  0  0  0  0  0  0  0  0  0
  150.7052  166.6933  133.4582 C   0  0  0  0  0  0  0  0  0  0  0  0
  151.3782  167.8817  132.8448 C   0  0  0  0  0  0  0  0  0  0  0  0
  150.8040  169.0358  133.6324 C   0  0  1  0  0  0  0  0  0  0  0  0
  150.0851  168.4788  134.8006 C   0  0  2  0  0  0  0  0  0  0  0  0
  151.8710  170.0472  133.8305 C   0  0  1  0  0  0  0  0  0  0  0  0
  151.5869  171.1384  132.9635 N   0  0  0  0  0  0  0  0  0  0  0  0
  152.4022  172.2778  132.6158 C   0  0  0  0  0  0  0  0  0  0  0  0
  150.2767  170.9763  132.3826 C   0  0  0  0  0  0  0  0  0  0  0  0
  149.4799  171.7510  131.5882 C   0  0  0  0  0  0  0  0  0  0  0  0
  148.2251  171.3093  131.1507 C   0  0  0  0  0  0  0  0  0  0  0  0
  147.4933  172.1710  130.3516 O   0  0  0  0  0  0  0  0  0  0  0  0
  147.1987  173.4703  130.8030 C   0  0  0  0  0  0  0  0  0  0  0  0
  147.7507  170.0472  131.5204 C   0  0  0  0  0  0  0  0  0  0  0  0
  148.5714  169.3123  132.3085 C   0  0  0  0  0  0  0  0  0  0  0  0
  149.8295  169.7592  132.7466 C   0  0  0  0  0  0  0  0  0  0  0  0
  146.4651  169.5453  131.0137 C   0  0  1  0  0  0  0  0  0  0  0  0
  145.7258  170.4761  130.1043 C   0  0  0  0  0  0  0  0  0  0  0  0
  146.0313  170.5717  128.6705 C   0  0  2  0  0  0  0  0  0  0  0  0
  144.8097  170.6027  127.7609 C   0  0  0  0  0  0  0  0  0  0  0  0
  144.4485  169.3069  127.2022 C   0  0  2  0  0  0  0  0  0  0  0  0
  145.3595  168.2530  127.7175 C   0  0  0  0  0  0  0  0  0  0  0  0
  146.8036  168.5855  127.2837 N   0  0  0  0  0  0  0  0  0  0  0  0
  147.1265  169.8325  128.1615 C   0  0  0  0  0  0  0  0  0  0  0  0
  147.5172  167.5251  128.2114 C   0  0  0  0  0  0  0  0  0  0  0  0
  146.9125  167.4041  129.4910 C   0  0  0  0  0  0  0  0  0  0  0  0
  146.4810  168.1208  130.5997 C   0  0  0  0  0  0  0  0  0  0  0  0
  145.9521  167.2342  131.4720 N   0  0  0  0  0  0  0  0  0  0  0  0
  145.9997  165.9783  131.0289 C   0  0  0  0  0  0  0  0  0  0  0  0
  145.5901  164.7803  131.5700 C   0  0  0  0  0  0  0  0  0  0  0  0
  145.7713  163.6118  130.8734 C   0  0  0  0  0  0  0  0  0  0  0  0
  146.3581  163.6484  129.6455 C   0  0  0  0  0  0  0  0  0  0  0  0
  146.7628  164.8609  129.1182 C   0  0  0  0  0  0  0  0  0  0  0  0
  146.5993  166.0717  129.7888 C   0  0  0  0  0  0  0  0  0  0  0  0
  144.4908  169.1863  125.6972 C   0  0  0  0  0  0  0  0  0  0  0  0
  143.4262  170.0654  125.0873 C   0  0  0  0  0  0  0  0  0  0  0  0
  144.1777  167.8864  125.3382 F   0  0  0  0  0  0  0  0  0  0  0  0
  145.7183  169.5753  125.2294 F   0  0  0  0  0  0  0  0  0  0  0  0
  145.5566  169.6351  132.2491 C   0  0  0  0  0  0  0  0  0  0  0  0
  144.3306  169.6605  132.1996 O   0  0  0  0  0  0  0  0  0  0  0  0
  146.1465  169.6906  133.5295 O   0  0  0  0  0  0  0  0  0  0  0  0
  145.3753  169.4251  134.6720 C   0  0  0  0  0  0  0  0  0  0  0  0
  152.1010  170.3478  135.2751 C   0  0  2  0  0  0  0  0  0  0  0  0
  152.6612  169.1291  135.7786 O   0  0  0  0  0  0  0  0  0  0  0  0
  150.7243  170.5562  135.8712 C   0  0  2  0  0  0  0  0  0  0  0  0
  150.7426  171.3717  137.0062 O   0  0  0  0  0  0  0  0  0  0  0  0
  151.8289  171.3839  137.8677 C   0  0  0  0  0  0  0  0  0  0  0  0
  152.6144  170.1738  138.2017 C   0  0  0  0  0  0  0  0  0  0  0  0
  152.1714  172.4736  138.3960 O   0  0  0  0  0  0  0  0  0  0  0  0
  153.0462  171.3874  135.6060 C   0  0  0  0  0  0  0  0  0  0  0  0
  154.1661  171.4380  135.0530 O   0  0  0  0  0  0  0  0  0  0  0  0
  152.7519  172.3572  136.5428 O   0  0  0  0  0  0  0  0  0  0  0  0
  153.7145  173.2832  137.0231 C   0  0  0  0  0  0  0  0  0  0  0  0
  1  2  1  0
  3  2  1  1
  3  4  1  0
  4  5  2  0
  5  6  1  0
  6  7  1  0
  7  8  1  0
  8  9  1  0
 10  9  1  6
 10 11  1  0
 10 12  1  0
 12 13  1  6
 13 14  1  0
 13 15  1  0
 15 16  2  0
 16 17  1  0
 17 18  1  0
 18 19  1  0
 17 20  2  0
 20 21  1  0
 21 22  2  0
 20 23  1  0
 23 24  1  0
 25 24  1  1
 25 26  1  0
 26 27  1  0
 27 28  1  0
 29 28  1  1
 29 30  1  0
 29 31  1  0
 31 32  1  0
 32 33  2  0
 33 34  1  0
 34 35  1  0
 35 36  2  0
 36 37  1  0
 37 38  2  0
 38 39  1  0
 39 40  2  0
 27 41  1  6
 41 42  1  0
 41 43  1  0
 41 44  1  0
 23 45  1  1
 45 46  2  0
 45 47  1  0
 47 48  1  0
 12 49  1  0
 49 50  1  1
 49 51  1  0
 51 52  1  1
 52 53  1  0
 53 54  1  0
 53 55  2  0
 49 56  1  0
 56 57  2  0
 56 58  1  0
 58 59  1  0
 11  3  1  0
 22 15  1  0
 33 23  1  0
 40 35  1  0
 51  3  1  0
 11  7  1  1
 30 25  1  0
 40 32  1  0
 22 10  1  0
M  END
$$$$
