
     RDKit          3D

 59 67  0  0  0  0  0  0  0  0999 V2000
  118.7534  168.0952  147.5410 C   0  0  0  0  0  0  0  0  0  0  0  0
  118.0903  167.6106  146.2594 C   0  0  0  0  0  0  0  0  0  0  0  0
  118.3442  166.0976  146.0956 C   0  0  1  0  0  0  0  0  0  0  0  0
  118.5245  165.6093  147.4819 C   0  0  0  0  0  0  0  0  0  0  0  0
  117.6241  164.8853  148.0852 C   0  0  0  0  0  0  0  0  0  0  0  0
  116.3676  164.5167  147.3992 C   0  0  0  0  0  0  0  0  0  0  0  0
  116.3257  164.6828  146.0344 N   0  0  0  0  0  0  0  0  0  0  0  0
  115.6823  163.7589  145.1911 C   0  0  0  0  0  0  0  0  0  0  0  0
  116.7308  163.3584  144.2003 C   0  0  0  0  0  0  0  0  0  0  0  0
  117.6521  164.5554  144.1847 C   0  0  1  0  0  0  0  0  0  0  0  0
  117.2837  165.4302  145.3210 C   0  0  2  0  0  0  0  0  0  0  0  0
  119.0476  164.0730  144.0412 C   0  0  1  0  0  0  0  0  0  0  0  0
  119.4592  164.3569  142.7097 N   0  0  0  0  0  0  0  0  0  0  0  0
  120.6349  163.9213  141.9941 C   0  0  0  0  0  0  0  0  0  0  0  0
  118.4795  165.1924  142.0599 C   0  0  0  0  0  0  0  0  0  0  0  0
  118.4160  165.8320  140.8544 C   0  0  0  0  0  0  0  0  0  0  0  0
  117.2937  166.5792  140.4761 C   0  0  0  0  0  0  0  0  0  0  0  0
  117.3294  167.1917  139.2350 O   0  0  0  0  0  0  0  0  0  0  0  0
  118.4570  167.9401  138.8516 C   0  0  0  0  0  0  0  0  0  0  0  0
  116.1953  166.6898  141.3338 C   0  0  0  0  0  0  0  0  0  0  0  0
  116.2996  166.0412  142.5183 C   0  0  0  0  0  0  0  0  0  0  0  0
  117.4279  165.2932  142.8952 C   0  0  0  0  0  0  0  0  0  0  0  0
  114.9850  167.4154  140.9213 C   0  0  1  0  0  0  0  0  0  0  0  0
  114.3812  166.9728  139.6254 C   0  0  0  0  0  0  0  0  0  0  0  0
  113.4805  165.8154  139.5398 C   0  0  2  0  0  0  0  0  0  0  0  0
  112.2396  166.0375  138.6846 C   0  0  0  0  0  0  0  0  0  0  0  0
  111.0532  166.4151  139.4408 C   0  0  2  0  0  0  0  0  0  0  0  0
  111.3814  166.5379  140.8842 C   0  0  0  0  0  0  0  0  0  0  0  0
  111.8747  165.1696  141.4023 N   0  0  0  0  0  0  0  0  0  0  0  0
  113.2625  165.0403  140.7045 C   0  0  0  0  0  0  0  0  0  0  0  0
  112.4207  165.6905  142.7897 C   0  0  0  0  0  0  0  0  0  0  0  0
  113.0544  166.9587  142.7011 C   0  0  0  0  0  0  0  0  0  0  0  0
  114.0239  167.6828  142.0193 C   0  0  0  0  0  0  0  0  0  0  0  0
  114.0321  168.9316  142.5361 N   0  0  0  0  0  0  0  0  0  0  0  0
  113.1412  169.0950  143.5136 C   0  0  0  0  0  0  0  0  0  0  0  0
  112.8107  170.1710  144.3065 C   0  0  0  0  0  0  0  0  0  0  0  0
  111.8297  170.0498  145.2586 C   0  0  0  0  0  0  0  0  0  0  0  0
  111.1881  168.8587  145.4111 C   0  0  0  0  0  0  0  0  0  0  0  0
  111.5336  167.7894  144.6055 C   0  0  0  0  0  0  0  0  0  0  0  0
  112.5225  167.8660  143.6264 C   0  0  0  0  0  0  0  0  0  0  0  0
  109.8772  165.4703  139.3659 C   0  0  0  0  0  0  0  0  0  0  0  0
  110.3267  164.0716  139.7119 C   0  0  0  0  0  0  0  0  0  0  0  0
  109.4176  165.4219  138.0608 F   0  0  0  0  0  0  0  0  0  0  0  0
  108.9040  165.8613  140.2473 F   0  0  0  0  0  0  0  0  0  0  0  0
  115.5412  168.7778  140.4809 C   0  0  0  0  0  0  0  0  0  0  0  0
  115.3826  169.8201  141.1093 O   0  0  0  0  0  0  0  0  0  0  0  0
  116.2853  168.8588  139.2850 O   0  0  0  0  0  0  0  0  0  0  0  0
  116.3261  170.0609  138.5612 C   0  0  0  0  0  0  0  0  0  0  0  0
  119.9235  164.5434  145.1555 C   0  0  2  0  0  0  0  0  0  0  0  0
  119.4134  163.8383  146.2937 O   0  0  0  0  0  0  0  0  0  0  0  0
  119.6331  166.0224  145.3045 C   0  0  2  0  0  0  0  0  0  0  0  0
  120.7015  166.7315  145.8606 O   0  0  0  0  0  0  0  0  0  0  0  0
  121.5118  166.1680  146.8344 C   0  0  0  0  0  0  0  0  0  0  0  0
  121.0792  165.9706  148.2368 C   0  0  0  0  0  0  0  0  0  0  0  0
  122.6741  165.8028  146.5189 O   0  0  0  0  0  0  0  0  0  0  0  0
  121.3301  164.2264  145.0881 C   0  0  0  0  0  0  0  0  0  0  0  0
  122.1664  165.0849  144.7327 O   0  0  0  0  0  0  0  0  0  0  0  0
  121.8017  162.9694  145.4083 O   0  0  0  0  0  0  0  0  0  0  0  0
  123.0919  162.5110  145.0343 C   0  0  0  0  0  0  0  0  0  0  0  0
  1  2  1  0
  3  2  1  1
  3  4  1  0
  4  5  2  0
  5  6  1  0
  6  7  1  0
  7  8  1  0
  8  9  1  0
 10  9  1  6
 10 11  1  0
 10 12  1  0
 12 13  1  6
 13 14  1  0
 13 15  1  0
 15 16  2  0
 16 17  1  0
 17 18  1  0
 18 19  1  0
 17 20  2  0
 20 21  1  0
 21 22  2  0
 20 23  1  0
 23 24  1  0
 25 24  1  1
 25 26  1  0
 26 27  1  0
 27 28  1  0
 29 28  1  6
 29 30  1  0
 29 31  1  0
 31 32  1  0
 32 33  2  0
 33 34  1  0
 34 35  1  0
 35 36  2  0
 36 37  1  0
 37 38  2  0
 38 39  1  0
 39 40  2  0
 27 41  1  1
 41 42  1  0
 41 43  1  0
 41 44  1  0
 23 45  1  6
 45 46  2  0
 45 47  1  0
 47 48  1  0
 12 49  1  0
 49 50  1  1
 49 51  1  0
 51 52  1  1
 52 53  1  0
 53 54  1  0
 53 55  2  0
 49 56  1  0
 56 57  2  0
 56 58  1  0
 58 59  1  0
 11  3  1  0
 22 15  1  0
 33 23  1  0
 40 35  1  0
 51  3  1  0
 11  7  1  1
 30 25  1  0
 40 32  1  0
 22 10  1  0
M  END
$$$$
