
     RDKit          3D

 59 67  0  0  0  0  0  0  0  0999 V2000
  184.9434  157.2780  145.8070 C   0  0  0  0  0  0  0  0  0  0  0  0
  184.8368  157.3647  144.2910 C   0  0  0  0  0  0  0  0  0  0  0  0
  183.3861  157.7179  143.9022 C   0  0  1  0  0  0  0  0  0  0  0  0
  182.5725  157.1822  145.0174 C   0  0  0  0  0  0  0  0  0  0  0  0
  181.9977  157.9587  145.8923 C   0  0  0  0  0  0  0  0  0  0  0  0
  182.1367  159.4278  145.8051 C   0  0  0  0  0  0  0  0  0  0  0  0
  182.6065  159.9443  144.6200 N   0  0  0  0  0  0  0  0  0  0  0  0
  182.0971  161.1359  144.0729 C   0  0  0  0  0  0  0  0  0  0  0  0
  181.6635  160.7611  142.6898 C   0  0  0  0  0  0  0  0  0  0  0  0
  182.5462  159.5775  142.3708 C   0  0  1  0  0  0  0  0  0  0  0  0
  183.2125  159.1540  143.6232 C   0  0  2  0  0  0  0  0  0  0  0  0
  181.7559  158.6000  141.5831 C   0  0  1  0  0  0  0  0  0  0  0  0
  182.2087  158.6756  140.2369 N   0  0  0  0  0  0  0  0  0  0  0  0
  181.6474  158.0955  139.0401 C   0  0  0  0  0  0  0  0  0  0  0  0
  183.3964  159.4904  140.1629 C   0  0  0  0  0  0  0  0  0  0  0  0
  184.2810  159.8044  139.1703 C   0  0  0  0  0  0  0  0  0  0  0  0
  185.3633  160.6643  139.3941 C   0  0  0  0  0  0  0  0  0  0  0  0
  186.2041  160.9164  138.3234 O   0  0  0  0  0  0  0  0  0  0  0  0
  185.9482  160.3251  137.0731 C   0  0  0  0  0  0  0  0  0  0  0  0
  185.5677  161.2312  140.6555 C   0  0  0  0  0  0  0  0  0  0  0  0
  184.6685  160.8935  141.6106 C   0  0  0  0  0  0  0  0  0  0  0  0
  183.5841  160.0293  141.3828 C   0  0  0  0  0  0  0  0  0  0  0  0
  186.6606  162.1871  140.8860 C   0  0  1  0  0  0  0  0  0  0  0  0
  187.9698  161.8302  140.2545 C   0  0  0  0  0  0  0  0  0  0  0  0
  188.2645  162.1315  138.8471 C   0  0  2  0  0  0  0  0  0  0  0  0
  189.6484  162.7178  138.5989 C   0  0  0  0  0  0  0  0  0  0  0  0
  189.6740  164.1716  138.5126 C   0  0  2  0  0  0  0  0  0  0  0  0
  188.3150  164.7243  138.7452 C   0  0  0  0  0  0  0  0  0  0  0  0
  187.3643  164.1878  137.6532 N   0  0  0  0  0  0  0  0  0  0  0  0
  187.2375  162.6843  138.0444 C   0  0  0  0  0  0  0  0  0  0  0  0
  186.0220  164.6633  138.3361 C   0  0  0  0  0  0  0  0  0  0  0  0
  186.0290  164.5133  139.7486 C   0  0  0  0  0  0  0  0  0  0  0  0
  186.2638  163.6126  140.7795 C   0  0  0  0  0  0  0  0  0  0  0  0
  186.0670  164.2715  141.9430 N   0  0  0  0  0  0  0  0  0  0  0  0
  185.7167  165.5450  141.7659 C   0  0  0  0  0  0  0  0  0  0  0  0
  185.4216  166.5638  142.6437 C   0  0  0  0  0  0  0  0  0  0  0  0
  185.0819  167.8058  142.1687 C   0  0  0  0  0  0  0  0  0  0  0  0
  185.0399  168.0204  140.8250 C   0  0  0  0  0  0  0  0  0  0  0  0
  185.3396  166.9851  139.9588 C   0  0  0  0  0  0  0  0  0  0  0  0
  185.6894  165.7085  140.3953 C   0  0  0  0  0  0  0  0  0  0  0  0
  190.1383  164.7610  137.2018 C   0  0  0  0  0  0  0  0  0  0  0  0
  191.5099  164.2297  136.8636 C   0  0  0  0  0  0  0  0  0  0  0  0
  190.2738  166.1315  137.3443 F   0  0  0  0  0  0  0  0  0  0  0  0
  189.2658  164.4246  136.2006 F   0  0  0  0  0  0  0  0  0  0  0  0
  187.0219  161.9390  142.3582 C   0  0  0  0  0  0  0  0  0  0  0  0
  187.3074  162.8280  143.1546 O   0  0  0  0  0  0  0  0  0  0  0  0
  187.0300  160.6155  142.8469 O   0  0  0  0  0  0  0  0  0  0  0  0
  187.5059  160.3452  144.1396 C   0  0  0  0  0  0  0  0  0  0  0  0
  181.7180  157.2546  142.2299 C   0  0  2  0  0  0  0  0  0  0  0  0
  180.9389  157.4803  143.4109 O   0  0  0  0  0  0  0  0  0  0  0  0
  183.1497  156.9499  142.6188 C   0  0  2  0  0  0  0  0  0  0  0  0
  183.4088  155.5790  142.7029 O   0  0  0  0  0  0  0  0  0  0  0  0
  182.5230  154.7149  143.3281 C   0  0  0  0  0  0  0  0  0  0  0  0
  181.0747  154.9932  143.4621 C   0  0  0  0  0  0  0  0  0  0  0  0
  182.9633  153.6379  143.8078 O   0  0  0  0  0  0  0  0  0  0  0  0
  181.0630  156.1823  141.5194 C   0  0  0  0  0  0  0  0  0  0  0  0
  179.9608  155.7352  141.9039 O   0  0  0  0  0  0  0  0  0  0  0  0
  181.6276  155.6111  140.3970 O   0  0  0  0  0  0  0  0  0  0  0  0
  182.2711  156.3708  139.3854 C   0  0  0  0  0  0  0  0  0  0  0  0
  1  2  1  0
  3  2  1  1
  3  4  1  0
  4  5  2  0
  5  6  1  0
  6  7  1  0
  7  8  1  0
  8  9  1  0
 10  9  1  1
 10 11  1  0
 10 12  1  0
 12 13  1  6
 13 14  1  0
 13 15  1  0
 15 16  2  0
 16 17  1  0
 17 18  1  0
 18 19  1  0
 17 20  2  0
 20 21  1  0
 21 22  2  0
 20 23  1  0
 23 24  1  0
 25 24  1  1
 25 26  1  0
 26 27  1  0
 27 28  1  0
 29 28  1  1
 29 30  1  0
 29 31  1  0
 31 32  1  0
 32 33  2  0
 33 34  1  0
 34 35  1  0
 35 36  2  0
 36 37  1  0
 37 38  2  0
 38 39  1  0
 39 40  2  0
 27 41  1  6
 41 42  1  0
 41 43  1  0
 41 44  1  0
 23 45  1  1
 45 46  2  0
 45 47  1  0
 47 48  1  0
 12 49  1  0
 49 50  1  1
 49 51  1  0
 51 52  1  1
 52 53  1  0
 53 54  1  0
 53 55  2  0
 49 56  1  0
 56 57  2  0
 56 58  1  0
 58 59  1  0
 11  3  1  0
 22 15  1  0
 33 23  1  0
 40 35  1  0
 51  3  1  0
 11  7  1  1
 30 25  1  0
 40 32  1  0
 22 10  1  0
M  END
$$$$
