
     RDKit          3D

 59 67  0  0  0  0  0  0  0  0999 V2000
  150.6975  166.3900  133.5393 C   0  0  0  0  0  0  0  0  0  0  0  0
  149.8189  167.4652  132.9156 C   0  0  0  0  0  0  0  0  0  0  0  0
  149.5135  167.0869  131.4514 C   0  0  1  0  0  0  0  0  0  0  0  0
  149.7286  165.6226  131.4042 C   0  0  0  0  0  0  0  0  0  0  0  0
  148.7402  164.7789  131.3039 C   0  0  0  0  0  0  0  0  0  0  0  0
  147.3434  165.2571  131.2320 C   0  0  0  0  0  0  0  0  0  0  0  0
  147.1500  166.5903  130.9540 N   0  0  0  0  0  0  0  0  0  0  0  0
  146.1081  167.0336  130.1194 C   0  0  0  0  0  0  0  0  0  0  0  0
  146.7908  167.8434  129.0612 C   0  0  0  0  0  0  0  0  0  0  0  0
  148.0507  168.3066  129.7540 C   0  0  1  0  0  0  0  0  0  0  0  0
  148.1828  167.5467  131.0177 C   0  0  2  0  0  0  0  0  0  0  0  0
  149.1582  168.3044  128.7672 C   0  0  1  0  0  0  0  0  0  0  0  0
  149.4308  169.6598  128.4330 N   0  0  0  0  0  0  0  0  0  0  0  0
  150.2620  170.2031  127.3852 C   0  0  0  0  0  0  0  0  0  0  0  0
  148.7065  170.5392  129.3174 C   0  0  0  0  0  0  0  0  0  0  0  0
  148.6792  171.8913  129.5108 C   0  0  0  0  0  0  0  0  0  0  0  0
  147.8345  172.4822  130.4586 C   0  0  0  0  0  0  0  0  0  0  0  0
  147.8844  173.8604  130.5800 O   0  0  0  0  0  0  0  0  0  0  0  0
  147.8623  174.6695  129.4296 C   0  0  0  0  0  0  0  0  0  0  0  0
  146.9862  171.6925  131.2404 C   0  0  0  0  0  0  0  0  0  0  0  0
  147.0451  170.3578  131.0172 C   0  0  0  0  0  0  0  0  0  0  0  0
  147.8948  169.7681  130.0659 C   0  0  0  0  0  0  0  0  0  0  0  0
  146.0473  172.3053  132.1914 C   0  0  1  0  0  0  0  0  0  0  0  0
  145.0497  173.2467  131.5926 C   0  0  0  0  0  0  0  0  0  0  0  0
  143.8060  172.7728  130.9705 C   0  0  2  0  0  0  0  0  0  0  0  0
  142.5625  173.5660  131.3513 C   0  0  0  0  0  0  0  0  0  0  0  0
  141.7883  172.9778  132.4359 C   0  0  2  0  0  0  0  0  0  0  0  0
  142.4567  171.7498  132.9373 C   0  0  0  0  0  0  0  0  0  0  0  0
  142.5427  170.7231  131.7872 N   0  0  0  0  0  0  0  0  0  0  0  0
  143.6003  171.3774  130.8475 C   0  0  0  0  0  0  0  0  0  0  0  0
  143.5360  169.7296  132.5088 C   0  0  0  0  0  0  0  0  0  0  0  0
  144.5363  170.3923  133.2690 C   0  0  0  0  0  0  0  0  0  0  0  0
  145.5166  171.3750  133.2179 C   0  0  0  0  0  0  0  0  0  0  0  0
  146.0791  171.4474  134.4447 N   0  0  0  0  0  0  0  0  0  0  0  0
  145.5484  170.5851  135.3110 C   0  0  0  0  0  0  0  0  0  0  0  0
  145.8050  170.3146  136.6364 C   0  0  0  0  0  0  0  0  0  0  0  0
  145.0870  169.3472  137.2938 C   0  0  0  0  0  0  0  0  0  0  0  0
  144.1210  168.6596  136.6248 C   0  0  0  0  0  0  0  0  0  0  0  0
  143.8773  168.9453  135.2941 C   0  0  0  0  0  0  0  0  0  0  0  0
  144.5808  169.9182  134.5863 C   0  0  0  0  0  0  0  0  0  0  0  0
  140.3714  172.5696  132.1085 C   0  0  0  0  0  0  0  0  0  0  0  0
  139.4967  172.7513  133.3250 C   0  0  0  0  0  0  0  0  0  0  0  0
  140.3476  171.2184  131.8076 F   0  0  0  0  0  0  0  0  0  0  0  0
  139.8854  173.3403  131.0854 F   0  0  0  0  0  0  0  0  0  0  0  0
  146.9306  173.3209  132.9315 C   0  0  0  0  0  0  0  0  0  0  0  0
  147.1099  173.3190  134.1456 O   0  0  0  0  0  0  0  0  0  0  0  0
  147.5877  174.3250  132.1894 O   0  0  0  0  0  0  0  0  0  0  0  0
  148.3178  175.3251  132.8506 C   0  0  0  0  0  0  0  0  0  0  0  0
  150.3030  167.4526  129.2072 C   0  0  2  0  0  0  0  0  0  0  0  0
  149.7657  166.1256  129.1494 O   0  0  0  0  0  0  0  0  0  0  0  0
  150.5608  167.8317  130.6507 C   0  0  2  0  0  0  0  0  0  0  0  0
  151.8792  167.5911  131.0476 O   0  0  0  0  0  0  0  0  0  0  0  0
  152.6844  166.6916  130.3659 C   0  0  0  0  0  0  0  0  0  0  0  0
  152.6067  165.2252  130.5568 C   0  0  0  0  0  0  0  0  0  0  0  0
  153.5258  167.1351  129.5416 O   0  0  0  0  0  0  0  0  0  0  0  0
  151.4890  167.4383  128.3845 C   0  0  0  0  0  0  0  0  0  0  0  0
  151.6275  166.5969  127.4704 O   0  0  0  0  0  0  0  0  0  0  0  0
  152.5108  168.3459  128.5774 O   0  0  0  0  0  0  0  0  0  0  0  0
  153.8823  167.9818  128.5464 C   0  0  0  0  0  0  0  0  0  0  0  0
  1  2  1  0
  3  2  1  1
  3  4  1  0
  4  5  2  0
  5  6  1  0
  6  7  1  0
  7  8  1  0
  8  9  1  0
 10  9  1  6
 10 11  1  0
 10 12  1  0
 12 13  1  1
 13 14  1  0
 13 15  1  0
 15 16  2  0
 16 17  1  0
 17 18  1  0
 18 19  1  0
 17 20  2  0
 20 21  1  0
 21 22  2  0
 20 23  1  0
 23 24  1  0
 25 24  1  1
 25 26  1  0
 26 27  1  0
 27 28  1  0
 29 28  1  1
 29 30  1  0
 29 31  1  0
 31 32  1  0
 32 33  2  0
 33 34  1  0
 34 35  1  0
 35 36  2  0
 36 37  1  0
 37 38  2  0
 38 39  1  0
 39 40  2  0
 27 41  1  6
 41 42  1  0
 41 43  1  0
 41 44  1  0
 23 45  1  1
 45 46  2  0
 45 47  1  0
 47 48  1  0
 12 49  1  0
 49 50  1  1
 49 51  1  0
 51 52  1  1
 52 53  1  0
 53 54  1  0
 53 55  2  0
 49 56  1  0
 56 57  2  0
 56 58  1  0
 58 59  1  0
 11  3  1  0
 22 15  1  0
 33 23  1  0
 40 35  1  0
 51  3  1  0
 11  7  1  6
 30 25  1  0
 40 32  1  0
 22 10  1  0
M  END
$$$$
