
     RDKit          3D

 59 67  0  0  0  0  0  0  0  0999 V2000
  161.8117  147.9786  127.0705 C   0  0  0  0  0  0  0  0  0  0  0  0
  162.8961  149.0466  127.0912 C   0  0  0  0  0  0  0  0  0  0  0  0
  164.2795  148.3663  127.1514 C   0  0  1  0  0  0  0  0  0  0  0  0
  163.9840  146.9286  126.9551 C   0  0  0  0  0  0  0  0  0  0  0  0
  164.2798  146.3039  125.8501 C   0  0  0  0  0  0  0  0  0  0  0  0
  164.9326  147.0163  124.7313 C   0  0  0  0  0  0  0  0  0  0  0  0
  165.4948  148.2404  125.0096 N   0  0  0  0  0  0  0  0  0  0  0  0
  166.7126  148.6484  124.4358 C   0  0  0  0  0  0  0  0  0  0  0  0
  167.5816  148.9982  125.6037 C   0  0  0  0  0  0  0  0  0  0  0  0
  166.5775  149.3650  126.6709 C   0  0  1  0  0  0  0  0  0  0  0  0
  165.2366  148.9530  126.1974 C   0  0  2  0  0  0  0  0  0  0  0  0
  167.0836  148.8819  127.9790 C   0  0  1  0  0  0  0  0  0  0  0  0
  167.5341  150.0190  128.7052 N   0  0  0  0  0  0  0  0  0  0  0  0
  168.2927  150.0902  129.9313 C   0  0  0  0  0  0  0  0  0  0  0  0
  167.1409  151.2263  128.0212 C   0  0  0  0  0  0  0  0  0  0  0  0
  167.2151  152.5588  128.3132 C   0  0  0  0  0  0  0  0  0  0  0  0
  166.7555  153.5345  127.4201 C   0  0  0  0  0  0  0  0  0  0  0  0
  166.8727  154.8573  127.8116 O   0  0  0  0  0  0  0  0  0  0  0  0
  167.4205  155.1737  129.0679 C   0  0  0  0  0  0  0  0  0  0  0  0
  166.2027  153.1643  126.1906 C   0  0  0  0  0  0  0  0  0  0  0  0
  166.1476  151.8341  125.9412 C   0  0  0  0  0  0  0  0  0  0  0  0
  166.6088  150.8576  126.8403 C   0  0  0  0  0  0  0  0  0  0  0  0
  165.7780  154.1805  125.2167 C   0  0  1  0  0  0  0  0  0  0  0  0
  164.3904  154.7093  125.4041 C   0  0  0  0  0  0  0  0  0  0  0  0
  164.0873  155.7814  126.3617 C   0  0  2  0  0  0  0  0  0  0  0  0
  163.1610  156.8668  125.8283 C   0  0  0  0  0  0  0  0  0  0  0  0
  163.8517  158.0444  125.3205 C   0  0  2  0  0  0  0  0  0  0  0  0
  165.3224  157.8564  125.4104 C   0  0  0  0  0  0  0  0  0  0  0  0
  165.7114  157.6643  126.8924 N   0  0  0  0  0  0  0  0  0  0  0  0
  165.1261  156.2529  127.2004 C   0  0  0  0  0  0  0  0  0  0  0  0
  167.1938  157.1883  126.6273 C   0  0  0  0  0  0  0  0  0  0  0  0
  167.3151  156.3401  125.4944 C   0  0  0  0  0  0  0  0  0  0  0  0
  166.8128  155.1931  124.8933 C   0  0  0  0  0  0  0  0  0  0  0  0
  167.4761  155.0254  123.7277 N   0  0  0  0  0  0  0  0  0  0  0  0
  168.3852  155.9742  123.5063 C   0  0  0  0  0  0  0  0  0  0  0  0
  169.2712  156.1975  122.4763 C   0  0  0  0  0  0  0  0  0  0  0  0
  170.1129  157.2808  122.5141 C   0  0  0  0  0  0  0  0  0  0  0  0
  170.0635  158.1304  123.5768 C   0  0  0  0  0  0  0  0  0  0  0  0
  169.1671  157.8901  124.6017 C   0  0  0  0  0  0  0  0  0  0  0  0
  168.2940  156.8037  124.6062 C   0  0  0  0  0  0  0  0  0  0  0  0
  163.5611  159.3507  126.0209 C   0  0  0  0  0  0  0  0  0  0  0  0
  163.1496  160.3900  125.0067 C   0  0  0  0  0  0  0  0  0  0  0  0
  164.7241  159.8174  126.6095 F   0  0  0  0  0  0  0  0  0  0  0  0
  162.5488  159.1817  126.9284 F   0  0  0  0  0  0  0  0  0  0  0  0
  165.5561  153.3542  123.9410 C   0  0  0  0  0  0  0  0  0  0  0  0
  164.6245  153.5307  123.1617 O   0  0  0  0  0  0  0  0  0  0  0  0
  166.4685  152.3255  123.6249 O   0  0  0  0  0  0  0  0  0  0  0  0
  166.1943  151.4409  122.5699 C   0  0  0  0  0  0  0  0  0  0  0  0
  166.1174  147.9641  128.6527 C   0  0  2  0  0  0  0  0  0  0  0  0
  166.1261  146.8040  127.8119 O   0  0  0  0  0  0  0  0  0  0  0  0
  164.7702  148.6493  128.5556 C   0  0  2  0  0  0  0  0  0  0  0  0
  163.8904  148.2623  129.5704 O   0  0  0  0  0  0  0  0  0  0  0  0
  163.8131  146.9443  129.9936 C   0  0  0  0  0  0  0  0  0  0  0  0
  164.7590  146.3456  130.9630 C   0  0  0  0  0  0  0  0  0  0  0  0
  162.8961  146.2135  129.5363 O   0  0  0  0  0  0  0  0  0  0  0  0
  166.4428  147.4970  129.9792 C   0  0  0  0  0  0  0  0  0  0  0  0
  166.7822  146.3105  130.1779 O   0  0  0  0  0  0  0  0  0  0  0  0
  166.3884  148.3376  131.0726 O   0  0  0  0  0  0  0  0  0  0  0  0
  167.4293  149.2451  131.4006 C   0  0  0  0  0  0  0  0  0  0  0  0
  1  2  1  0
  3  2  1  1
  3  4  1  0
  4  5  2  0
  5  6  1  0
  6  7  1  0
  7  8  1  0
  8  9  1  0
 10  9  1  6
 10 11  1  0
 10 12  1  0
 12 13  1  1
 13 14  1  0
 13 15  1  0
 15 16  2  0
 16 17  1  0
 17 18  1  0
 18 19  1  0
 17 20  2  0
 20 21  1  0
 21 22  2  0
 20 23  1  0
 23 24  1  0
 25 24  1  6
 25 26  1  0
 26 27  1  0
 27 28  1  0
 29 28  1  6
 29 30  1  0
 29 31  1  0
 31 32  1  0
 32 33  2  0
 33 34  1  0
 34 35  1  0
 35 36  2  0
 36 37  1  0
 37 38  2  0
 38 39  1  0
 39 40  2  0
 27 41  1  1
 41 42  1  0
 41 43  1  0
 41 44  1  0
 23 45  1  6
 45 46  2  0
 45 47  1  0
 47 48  1  0
 12 49  1  0
 49 50  1  6
 49 51  1  0
 51 52  1  1
 52 53  1  0
 53 54  1  0
 53 55  2  0
 49 56  1  0
 56 57  2  0
 56 58  1  0
 58 59  1  0
 11  3  1  0
 22 15  1  0
 33 23  1  0
 40 35  1  0
 51  3  1  0
 11  7  1  6
 30 25  1  0
 40 32  1  0
 22 10  1  0
M  END
$$$$
