
     RDKit          3D

 59 67  0  0  0  0  0  0  0  0999 V2000
  183.7751  153.3470  128.2547 C   0  0  0  0  0  0  0  0  0  0  0  0
  184.9346  152.6152  127.5936 C   0  0  0  0  0  0  0  0  0  0  0  0
  185.9016  152.1051  128.6822 C   0  0  1  0  0  0  0  0  0  0  0  0
  185.6127  152.9639  129.8533 C   0  0  0  0  0  0  0  0  0  0  0  0
  184.9865  152.5157  130.9049 C   0  0  0  0  0  0  0  0  0  0  0  0
  184.5329  151.1104  130.9719 C   0  0  0  0  0  0  0  0  0  0  0  0
  185.0647  150.2348  130.0540 N   0  0  0  0  0  0  0  0  0  0  0  0
  185.4029  148.9127  130.3950 C   0  0  0  0  0  0  0  0  0  0  0  0
  186.8419  148.7784  130.0041 C   0  0  0  0  0  0  0  0  0  0  0  0
  186.9896  149.8087  128.9093 C   0  0  1  0  0  0  0  0  0  0  0  0
  185.7752  150.6555  128.9122 C   0  0  2  0  0  0  0  0  0  0  0  0
  188.3301  150.4327  129.0284 C   0  0  1  0  0  0  0  0  0  0  0  0
  189.1334  149.9158  127.9746 N   0  0  0  0  0  0  0  0  0  0  0  0
  190.5551  150.0340  127.7543 C   0  0  0  0  0  0  0  0  0  0  0  0
  188.3147  149.1624  127.0568 C   0  0  0  0  0  0  0  0  0  0  0  0
  188.5368  148.5559  125.8530 C   0  0  0  0  0  0  0  0  0  0  0  0
  187.5243  147.8586  125.1824 C   0  0  0  0  0  0  0  0  0  0  0  0
  187.8503  147.2822  123.9666 O   0  0  0  0  0  0  0  0  0  0  0  0
  189.1995  147.1293  123.5993 C   0  0  0  0  0  0  0  0  0  0  0  0
  186.2442  147.7638  125.7361 C   0  0  0  0  0  0  0  0  0  0  0  0
  186.0668  148.3793  126.9296 C   0  0  0  0  0  0  0  0  0  0  0  0
  187.0848  149.0791  127.5992 C   0  0  0  0  0  0  0  0  0  0  0  0
  185.1914  146.9789  125.0749 C   0  0  1  0  0  0  0  0  0  0  0  0
  185.6508  145.7178  124.4126 C   0  0  0  0  0  0  0  0  0  0  0  0
  185.8406  144.4683  125.1614 C   0  0  2  0  0  0  0  0  0  0  0  0
  185.2794  143.2271  124.4795 C   0  0  0  0  0  0  0  0  0  0  0  0
  183.9500  142.8448  124.9357 C   0  0  2  0  0  0  0  0  0  0  0  0
  183.4510  143.8197  125.9392 C   0  0  0  0  0  0  0  0  0  0  0  0
  184.4032  143.8165  127.1548 N   0  0  0  0  0  0  0  0  0  0  0  0
  185.6797  144.4916  126.5680 C   0  0  0  0  0  0  0  0  0  0  0  0
  183.8175  145.1114  127.8436 C   0  0  0  0  0  0  0  0  0  0  0  0
  183.4628  146.1269  126.9159 C   0  0  0  0  0  0  0  0  0  0  0  0
  183.9261  146.8769  125.8427 C   0  0  0  0  0  0  0  0  0  0  0  0
  182.9179  147.6880  125.4525 N   0  0  0  0  0  0  0  0  0  0  0  0
  181.8159  147.5365  126.1863 C   0  0  0  0  0  0  0  0  0  0  0  0
  180.5786  148.1393  126.1498 C   0  0  0  0  0  0  0  0  0  0  0  0
  179.6095  147.7786  127.0521 C   0  0  0  0  0  0  0  0  0  0  0  0
  179.8824  146.8216  127.9812 C   0  0  0  0  0  0  0  0  0  0  0  0
  181.1307  146.2273  128.0024 C   0  0  0  0  0  0  0  0  0  0  0  0
  182.1448  146.5613  127.1066 C   0  0  0  0  0  0  0  0  0  0  0  0
  183.8246  141.4868  125.5847 C   0  0  0  0  0  0  0  0  0  0  0  0
  182.4372  141.3233  126.1562 C   0  0  0  0  0  0  0  0  0  0  0  0
  184.6997  141.4140  126.6552 F   0  0  0  0  0  0  0  0  0  0  0  0
  184.0493  140.5017  124.6595 F   0  0  0  0  0  0  0  0  0  0  0  0
  184.8817  147.8150  123.8240 C   0  0  0  0  0  0  0  0  0  0  0  0
  185.2217  147.5018  122.6871 O   0  0  0  0  0  0  0  0  0  0  0  0
  184.1613  149.0196  123.9674 O   0  0  0  0  0  0  0  0  0  0  0  0
  182.7647  149.0259  123.8248 C   0  0  0  0  0  0  0  0  0  0  0  0
  188.2494  151.9163  129.1782 C   0  0  2  0  0  0  0  0  0  0  0  0
  187.6573  152.0836  130.4721 O   0  0  0  0  0  0  0  0  0  0  0  0
  187.2775  152.3803  128.1132 C   0  0  2  0  0  0  0  0  0  0  0  0
  187.4932  153.7048  127.7222 O   0  0  0  0  0  0  0  0  0  0  0  0
  187.8604  154.6767  128.6401 C   0  0  0  0  0  0  0  0  0  0  0  0
  186.8871  155.4029  129.4876 C   0  0  0  0  0  0  0  0  0  0  0  0
  189.0798  154.9618  128.7661 O   0  0  0  0  0  0  0  0  0  0  0  0
  189.4862  152.6601  129.2068 C   0  0  0  0  0  0  0  0  0  0  0  0
  190.1089  152.8313  130.2771 O   0  0  0  0  0  0  0  0  0  0  0  0
  190.0229  153.2102  128.0604 O   0  0  0  0  0  0  0  0  0  0  0  0
  190.2860  152.4509  126.8904 C   0  0  0  0  0  0  0  0  0  0  0  0
  1  2  1  0
  3  2  1  6
  3  4  1  0
  4  5  2  0
  5  6  1  0
  6  7  1  0
  7  8  1  0
  8  9  1  0
 10  9  1  1
 10 11  1  0
 10 12  1  0
 12 13  1  6
 13 14  1  0
 13 15  1  0
 15 16  2  0
 16 17  1  0
 17 18  1  0
 18 19  1  0
 17 20  2  0
 20 21  1  0
 21 22  2  0
 20 23  1  0
 23 24  1  0
 25 24  1  6
 25 26  1  0
 26 27  1  0
 27 28  1  0
 29 28  1  6
 29 30  1  0
 29 31  1  0
 31 32  1  0
 32 33  2  0
 33 34  1  0
 34 35  1  0
 35 36  2  0
 36 37  1  0
 37 38  2  0
 38 39  1  0
 39 40  2  0
 27 41  1  1
 41 42  1  0
 41 43  1  0
 41 44  1  0
 23 45  1  6
 45 46  2  0
 45 47  1  0
 47 48  1  0
 12 49  1  0
 49 50  1  1
 49 51  1  0
 51 52  1  1
 52 53  1  0
 53 54  1  0
 53 55  2  0
 49 56  1  0
 56 57  2  0
 56 58  1  0
 58 59  1  0
 11  3  1  0
 22 15  1  0
 33 23  1  0
 40 35  1  0
 51  3  1  0
 11  7  1  1
 30 25  1  0
 40 32  1  0
 22 10  1  0
M  END
$$$$
