
     RDKit          3D

 59 67  0  0  0  0  0  0  0  0999 V2000
  188.6674  160.0235  142.5264 C   0  0  0  0  0  0  0  0  0  0  0  0
  187.3604  160.0021  141.7465 C   0  0  0  0  0  0  0  0  0  0  0  0
  186.6445  161.3582  141.9157 C   0  0  1  0  0  0  0  0  0  0  0  0
  187.1585  161.8801  143.2026 C   0  0  0  0  0  0  0  0  0  0  0  0
  187.9931  162.8794  143.2625 C   0  0  0  0  0  0  0  0  0  0  0  0
  188.4672  163.5424  142.0293 C   0  0  0  0  0  0  0  0  0  0  0  0
  187.7679  163.2893  140.8722 N   0  0  0  0  0  0  0  0  0  0  0  0
  187.5228  164.2914  139.9159 C   0  0  0  0  0  0  0  0  0  0  0  0
  186.0358  164.2910  139.7415 C   0  0  0  0  0  0  0  0  0  0  0  0
  185.6536  162.8805  140.1241 C   0  0  1  0  0  0  0  0  0  0  0  0
  186.8326  162.2423  140.7524 C   0  0  2  0  0  0  0  0  0  0  0  0
  184.3592  162.9236  140.8474 C   0  0  1  0  0  0  0  0  0  0  0  0
  183.3622  162.4291  139.9618 N   0  0  0  0  0  0  0  0  0  0  0  0
  181.9242  162.4467  140.0882 C   0  0  0  0  0  0  0  0  0  0  0  0
  183.9830  161.8661  138.7880 C   0  0  0  0  0  0  0  0  0  0  0  0
  183.5246  161.1802  137.6991 C   0  0  0  0  0  0  0  0  0  0  0  0
  184.3853  160.7642  136.6757 C   0  0  0  0  0  0  0  0  0  0  0  0
  183.8226  160.0726  135.6166 O   0  0  0  0  0  0  0  0  0  0  0  0
  182.4317  160.1110  135.4104 C   0  0  0  0  0  0  0  0  0  0  0  0
  185.7531  161.0451  136.7436 C   0  0  0  0  0  0  0  0  0  0  0  0
  186.1654  161.7261  137.8395 C   0  0  0  0  0  0  0  0  0  0  0  0
  185.2991  162.1410  138.8651 C   0  0  0  0  0  0  0  0  0  0  0  0
  186.6562  160.6727  135.6448 C   0  0  1  0  0  0  0  0  0  0  0  0
  185.9905  160.3885  134.3348 C   0  0  0  0  0  0  0  0  0  0  0  0
  185.6145  161.4599  133.4026 C   0  0  2  0  0  0  0  0  0  0  0  0
  185.9589  161.1837  131.9446 C   0  0  0  0  0  0  0  0  0  0  0  0
  187.2169  161.7731  131.5064 C   0  0  2  0  0  0  0  0  0  0  0  0
  187.8810  162.4677  132.6390 C   0  0  0  0  0  0  0  0  0  0  0  0
  186.9595  163.6013  133.1389 N   0  0  0  0  0  0  0  0  0  0  0  0
  185.7988  162.8042  133.8073 C   0  0  0  0  0  0  0  0  0  0  0  0
  187.7558  163.9051  134.4686 C   0  0  0  0  0  0  0  0  0  0  0  0
  188.2542  162.7355  135.1020 C   0  0  0  0  0  0  0  0  0  0  0  0
  187.9005  161.4771  135.5717 C   0  0  0  0  0  0  0  0  0  0  0  0
  189.0195  160.9017  136.0649 N   0  0  0  0  0  0  0  0  0  0  0  0
  190.0942  161.6828  135.9610 C   0  0  0  0  0  0  0  0  0  0  0  0
  191.4114  161.5132  136.3241 C   0  0  0  0  0  0  0  0  0  0  0  0
  192.3241  162.5117  136.0925 C   0  0  0  0  0  0  0  0  0  0  0  0
  191.9157  163.6684  135.5019 C   0  0  0  0  0  0  0  0  0  0  0  0
  190.5888  163.8205  135.1440 C   0  0  0  0  0  0  0  0  0  0  0  0
  189.6276  162.8345  135.3594 C   0  0  0  0  0  0  0  0  0  0  0  0
  187.1330  162.7903  130.3931 C   0  0  0  0  0  0  0  0  0  0  0  0
  188.3352  163.7013  130.4461 C   0  0  0  0  0  0  0  0  0  0  0  0
  186.0240  163.5937  130.5965 F   0  0  0  0  0  0  0  0  0  0  0  0
  187.1020  162.1561  129.1791 F   0  0  0  0  0  0  0  0  0  0  0  0
  187.0764  159.2442  136.0222 C   0  0  0  0  0  0  0  0  0  0  0  0
  187.7325  158.9624  137.0203 O   0  0  0  0  0  0  0  0  0  0  0  0
  186.6934  158.1748  135.1854 O   0  0  0  0  0  0  0  0  0  0  0  0
  187.0400  156.8572  135.5237 C   0  0  0  0  0  0  0  0  0  0  0  0
  184.4517  162.3078  142.2047 C   0  0  2  0  0  0  0  0  0  0  0  0
  185.2956  163.2175  142.9209 O   0  0  0  0  0  0  0  0  0  0  0  0
  185.1777  160.9935  142.0064 C   0  0  2  0  0  0  0  0  0  0  0  0
  184.8707  160.0502  142.9911 O   0  0  0  0  0  0  0  0  0  0  0  0
  185.0588  160.3257  144.3368 C   0  0  0  0  0  0  0  0  0  0  0  0
  183.9541  160.6885  145.2539 C   0  0  0  0  0  0  0  0  0  0  0  0
  186.2232  160.2663  144.8108 O   0  0  0  0  0  0  0  0  0  0  0  0
  183.2387  162.1960  142.9792 C   0  0  0  0  0  0  0  0  0  0  0  0
  182.3910  163.1146  142.9827 O   0  0  0  0  0  0  0  0  0  0  0  0
  182.9724  161.0781  143.7437 O   0  0  0  0  0  0  0  0  0  0  0  0
  181.7296  160.3937  143.7028 C   0  0  0  0  0  0  0  0  0  0  0  0
  1  2  1  0
  3  2  1  6
  3  4  1  0
  4  5  2  0
  5  6  1  0
  6  7  1  0
  7  8  1  0
  8  9  1  0
 10  9  1  6
 10 11  1  0
 10 12  1  0
 12 13  1  6
 13 14  1  0
 13 15  1  0
 15 16  2  0
 16 17  1  0
 17 18  1  0
 18 19  1  0
 17 20  2  0
 20 21  1  0
 21 22  2  0
 20 23  1  0
 23 24  1  0
 25 24  1  1
 25 26  1  0
 26 27  1  0
 27 28  1  0
 29 28  1  6
 29 30  1  0
 29 31  1  0
 31 32  1  0
 32 33  2  0
 33 34  1  0
 34 35  1  0
 35 36  2  0
 36 37  1  0
 37 38  2  0
 38 39  1  0
 39 40  2  0
 27 41  1  6
 41 42  1  0
 41 43  1  0
 41 44  1  0
 23 45  1  1
 45 46  2  0
 45 47  1  0
 47 48  1  0
 12 49  1  0
 49 50  1  1
 49 51  1  0
 51 52  1  1
 52 53  1  0
 53 54  1  0
 53 55  2  0
 49 56  1  0
 56 57  2  0
 56 58  1  0
 58 59  1  0
 11  3  1  0
 22 15  1  0
 33 23  1  0
 40 35  1  0
 51  3  1  0
 11  7  1  1
 30 25  1  0
 40 32  1  0
 22 10  1  0
M  END
$$$$
