
     RDKit          3D

 59 67  0  0  0  0  0  0  0  0999 V2000
  166.5859  143.4538  128.0300 C   0  0  0  0  0  0  0  0  0  0  0  0
  166.8983  144.8180  128.6286 C   0  0  0  0  0  0  0  0  0  0  0  0
  168.3645  145.1856  128.3200 C   0  0  1  0  0  0  0  0  0  0  0  0
  168.9047  143.9824  127.6469 C   0  0  0  0  0  0  0  0  0  0  0  0
  169.1654  143.9597  126.3701 C   0  0  0  0  0  0  0  0  0  0  0  0
  168.9289  145.1526  125.5297 C   0  0  0  0  0  0  0  0  0  0  0  0
  168.7392  146.3502  126.1791 N   0  0  0  0  0  0  0  0  0  0  0  0
  169.2693  147.5565  125.6868 C   0  0  0  0  0  0  0  0  0  0  0  0
  170.0762  148.1055  126.8222 C   0  0  0  0  0  0  0  0  0  0  0  0
  169.4102  147.4949  128.0329 C   0  0  1  0  0  0  0  0  0  0  0  0
  168.4813  146.4430  127.5613 C   0  0  2  0  0  0  0  0  0  0  0  0
  170.4577  147.1674  129.0309 C   0  0  1  0  0  0  0  0  0  0  0  0
  170.3636  148.1287  130.0750 N   0  0  0  0  0  0  0  0  0  0  0  0
  171.2626  148.3889  131.1740 C   0  0  0  0  0  0  0  0  0  0  0  0
  169.1704  148.9214  129.9072 C   0  0  0  0  0  0  0  0  0  0  0  0
  168.5492  149.8844  130.6508 C   0  0  0  0  0  0  0  0  0  0  0  0
  167.3766  150.5111  130.2112 C   0  0  0  0  0  0  0  0  0  0  0  0
  166.8229  151.4721  131.0399 O   0  0  0  0  0  0  0  0  0  0  0  0
  167.2407  151.5718  132.3794 C   0  0  0  0  0  0  0  0  0  0  0  0
  166.8054  150.1628  128.9837 C   0  0  0  0  0  0  0  0  0  0  0  0
  167.4524  149.2039  128.2789 C   0  0  0  0  0  0  0  0  0  0  0  0
  168.6284  148.5763  128.7236 C   0  0  0  0  0  0  0  0  0  0  0  0
  165.6126  150.8597  128.4807 C   0  0  1  0  0  0  0  0  0  0  0  0
  165.5230  152.3125  128.8292 C   0  0  0  0  0  0  0  0  0  0  0  0
  166.2165  153.3459  128.0485 C   0  0  2  0  0  0  0  0  0  0  0  0
  165.3774  154.5791  127.7395 C   0  0  0  0  0  0  0  0  0  0  0  0
  164.7473  154.5587  126.4264 C   0  0  2  0  0  0  0  0  0  0  0  0
  165.0535  153.2833  125.7292 C   0  0  0  0  0  0  0  0  0  0  0  0
  166.5818  153.1732  125.5383 N   0  0  0  0  0  0  0  0  0  0  0  0
  167.0744  152.9384  126.9984 C   0  0  0  0  0  0  0  0  0  0  0  0
  166.5978  151.6563  125.0989 C   0  0  0  0  0  0  0  0  0  0  0  0
  165.6686  150.8561  125.8160 C   0  0  0  0  0  0  0  0  0  0  0  0
  165.2361  150.5087  127.0893 C   0  0  0  0  0  0  0  0  0  0  0  0
  164.2148  149.6356  126.9438 N   0  0  0  0  0  0  0  0  0  0  0  0
  163.9339  149.3728  125.6679 C   0  0  0  0  0  0  0  0  0  0  0  0
  162.9989  148.5620  125.0647 C   0  0  0  0  0  0  0  0  0  0  0  0
  162.9368  148.4818  123.6960 C   0  0  0  0  0  0  0  0  0  0  0  0
  163.8062  149.2097  122.9425 C   0  0  0  0  0  0  0  0  0  0  0  0
  164.7383  150.0186  123.5661 C   0  0  0  0  0  0  0  0  0  0  0  0
  164.8381  150.1314  124.9516 C   0  0  0  0  0  0  0  0  0  0  0  0
  165.1479  155.6564  125.4693 C   0  0  0  0  0  0  0  0  0  0  0  0
  164.7419  156.9958  126.0343 C   0  0  0  0  0  0  0  0  0  0  0  0
  164.4471  155.5026  124.2852 F   0  0  0  0  0  0  0  0  0  0  0  0
  166.5044  155.6408  125.2783 F   0  0  0  0  0  0  0  0  0  0  0  0
  164.4975  150.3196  129.3886 C   0  0  0  0  0  0  0  0  0  0  0  0
  164.6886  149.5600  130.3334 O   0  0  0  0  0  0  0  0  0  0  0  0
  163.1645  150.7097  129.1408 O   0  0  0  0  0  0  0  0  0  0  0  0
  162.2414  150.7720  130.1966 C   0  0  0  0  0  0  0  0  0  0  0  0
  170.4416  145.7234  129.4111 C   0  0  2  0  0  0  0  0  0  0  0  0
  170.8666  145.0638  128.2123 O   0  0  0  0  0  0  0  0  0  0  0  0
  168.9893  145.3909  129.6839 C   0  0  2  0  0  0  0  0  0  0  0  0
  168.8352  144.3163  130.5642 O   0  0  0  0  0  0  0  0  0  0  0  0
  169.6736  143.2134  130.5093 C   0  0  0  0  0  0  0  0  0  0  0  0
  171.1509  143.3147  130.5204 C   0  0  0  0  0  0  0  0  0  0  0  0
  169.1618  142.0653  130.4472 O   0  0  0  0  0  0  0  0  0  0  0  0
  171.3470  145.2883  130.4477 C   0  0  0  0  0  0  0  0  0  0  0  0
  172.3434  144.5836  130.1770 O   0  0  0  0  0  0  0  0  0  0  0  0
  171.1457  145.6291  131.7699 O   0  0  0  0  0  0  0  0  0  0  0  0
  169.8561  145.8342  132.3261 C   0  0  0  0  0  0  0  0  0  0  0  0
  1  2  1  0
  3  2  1  1
  3  4  1  0
  4  5  2  0
  5  6  1  0
  6  7  1  0
  7  8  1  0
  8  9  1  0
 10  9  1  6
 10 11  1  0
 10 12  1  0
 12 13  1  1
 13 14  1  0
 13 15  1  0
 15 16  2  0
 16 17  1  0
 17 18  1  0
 18 19  1  0
 17 20  2  0
 20 21  1  0
 21 22  2  0
 20 23  1  0
 23 24  1  0
 25 24  1  6
 25 26  1  0
 26 27  1  0
 27 28  1  0
 29 28  1  1
 29 30  1  0
 29 31  1  0
 31 32  1  0
 32 33  2  0
 33 34  1  0
 34 35  1  0
 35 36  2  0
 36 37  1  0
 37 38  2  0
 38 39  1  0
 39 40  2  0
 27 41  1  6
 41 42  1  0
 41 43  1  0
 41 44  1  0
 23 45  1  1
 45 46  2  0
 45 47  1  0
 47 48  1  0
 12 49  1  0
 49 50  1  6
 49 51  1  0
 51 52  1  1
 52 53  1  0
 53 54  1  0
 53 55  2  0
 49 56  1  0
 56 57  2  0
 56 58  1  0
 58 59  1  0
 11  3  1  0
 22 15  1  0
 33 23  1  0
 40 35  1  0
 51  3  1  0
 11  7  1  6
 30 25  1  0
 40 32  1  0
 22 10  1  0
M  END
$$$$
