
     RDKit          3D

 59 67  0  0  0  0  0  0  0  0999 V2000
  160.0721  146.6988  124.7686 C   0  0  0  0  0  0  0  0  0  0  0  0
  160.7536  146.9537  126.1056 C   0  0  0  0  0  0  0  0  0  0  0  0
  161.2250  145.6107  126.7009 C   0  0  1  0  0  0  0  0  0  0  0  0
  160.2816  144.6162  126.1408 C   0  0  0  0  0  0  0  0  0  0  0  0
  160.6375  143.7624  125.2226 C   0  0  0  0  0  0  0  0  0  0  0  0
  162.0186  143.7521  124.6955 C   0  0  0  0  0  0  0  0  0  0  0  0
  162.9706  144.4344  125.4167 N   0  0  0  0  0  0  0  0  0  0  0  0
  164.2786  143.9421  125.5761 C   0  0  0  0  0  0  0  0  0  0  0  0
  164.4889  143.9025  127.0580 C   0  0  0  0  0  0  0  0  0  0  0  0
  163.5385  144.9638  127.5601 C   0  0  1  0  0  0  0  0  0  0  0  0
  162.6511  145.3494  126.4394 C   0  0  2  0  0  0  0  0  0  0  0  0
  162.9556  144.5039  128.8442 C   0  0  1  0  0  0  0  0  0  0  0  0
  163.5686  145.2586  129.8824 N   0  0  0  0  0  0  0  0  0  0  0  0
  163.5152  145.0739  131.3131 C   0  0  0  0  0  0  0  0  0  0  0  0
  164.3512  146.3291  129.3153 C   0  0  0  0  0  0  0  0  0  0  0  0
  165.0428  147.3871  129.8337 C   0  0  0  0  0  0  0  0  0  0  0  0
  165.7464  148.2787  129.0145 C   0  0  0  0  0  0  0  0  0  0  0  0
  166.4124  149.3204  129.6373 O   0  0  0  0  0  0  0  0  0  0  0  0
  167.1423  149.0842  130.8164 C   0  0  0  0  0  0  0  0  0  0  0  0
  165.7595  148.1053  127.6274 C   0  0  0  0  0  0  0  0  0  0  0  0
  165.0612  147.0451  127.1552 C   0  0  0  0  0  0  0  0  0  0  0  0
  164.3553  146.1530  127.9801 C   0  0  0  0  0  0  0  0  0  0  0  0
  166.5484  148.9947  126.7624 C   0  0  1  0  0  0  0  0  0  0  0  0
  165.7718  149.7204  125.7088 C   0  0  0  0  0  0  0  0  0  0  0  0
  165.0444  150.9645  125.9942 C   0  0  2  0  0  0  0  0  0  0  0  0
  165.2202  152.0579  124.9482 C   0  0  0  0  0  0  0  0  0  0  0  0
  166.2463  153.0383  125.2760 C   0  0  2  0  0  0  0  0  0  0  0  0
  166.9086  152.6805  126.5565 C   0  0  0  0  0  0  0  0  0  0  0  0
  165.8525  152.6848  127.6830 N   0  0  0  0  0  0  0  0  0  0  0  0
  164.9982  151.4296  127.3308 C   0  0  0  0  0  0  0  0  0  0  0  0
  166.7540  151.9859  128.7753 C   0  0  0  0  0  0  0  0  0  0  0  0
  167.5764  150.9555  128.2464 C   0  0  0  0  0  0  0  0  0  0  0  0
  167.5699  149.7997  127.4762 C   0  0  0  0  0  0  0  0  0  0  0  0
  168.8455  149.3601  127.3982 N   0  0  0  0  0  0  0  0  0  0  0  0
  169.7034  150.1356  128.0603 C   0  0  0  0  0  0  0  0  0  0  0  0
  171.0656  150.0721  128.2505 C   0  0  0  0  0  0  0  0  0  0  0  0
  171.7022  151.0301  128.9992 C   0  0  0  0  0  0  0  0  0  0  0  0
  170.9759  152.0411  129.5505 C   0  0  0  0  0  0  0  0  0  0  0  0
  169.6089  152.0884  129.3484 C   0  0  0  0  0  0  0  0  0  0  0  0
  168.9203  151.1384  128.5962 C   0  0  0  0  0  0  0  0  0  0  0  0
  165.7859  154.4677  125.4371 C   0  0  0  0  0  0  0  0  0  0  0  0
  164.6195  154.5208  126.3935 C   0  0  0  0  0  0  0  0  0  0  0  0
  165.3157  154.9318  124.2204 F   0  0  0  0  0  0  0  0  0  0  0  0
  166.8070  155.2372  125.9294 F   0  0  0  0  0  0  0  0  0  0  0  0
  167.3121  148.0064  125.8682 C   0  0  0  0  0  0  0  0  0  0  0  0
  167.0777  147.8369  124.6755 O   0  0  0  0  0  0  0  0  0  0  0  0
  168.3524  147.2375  126.4313 O   0  0  0  0  0  0  0  0  0  0  0  0
  169.1501  146.4243  125.6109 C   0  0  0  0  0  0  0  0  0  0  0  0
  161.4635  144.4619  128.8026 C   0  0  2  0  0  0  0  0  0  0  0  0
  161.1909  143.3989  127.8814 O   0  0  0  0  0  0  0  0  0  0  0  0
  161.0363  145.7812  128.1935 C   0  0  2  0  0  0  0  0  0  0  0  0
  159.7488  146.1649  128.5790 O   0  0  0  0  0  0  0  0  0  0  0  0
  158.6774  145.2898  128.4855 C   0  0  0  0  0  0  0  0  0  0  0  0
  158.6430  143.9727  129.1615 C   0  0  0  0  0  0  0  0  0  0  0  0
  157.6804  145.6239  127.7941 O   0  0  0  0  0  0  0  0  0  0  0  0
  160.7635  144.1242  130.0189 C   0  0  0  0  0  0  0  0  0  0  0  0
  160.2920  142.9796  130.1929 O   0  0  0  0  0  0  0  0  0  0  0  0
  160.5863  145.0483  131.0286 O   0  0  0  0  0  0  0  0  0  0  0  0
  159.3820  145.1576  131.7718 C   0  0  0  0  0  0  0  0  0  0  0  0
  1  2  1  0
  3  2  1  6
  3  4  1  0
  4  5  2  0
  5  6  1  0
  6  7  1  0
  7  8  1  0
  8  9  1  0
 10  9  1  6
 10 11  1  0
 10 12  1  0
 12 13  1  1
 13 14  1  0
 13 15  1  0
 15 16  2  0
 16 17  1  0
 17 18  1  0
 18 19  1  0
 17 20  2  0
 20 21  1  0
 21 22  2  0
 20 23  1  0
 23 24  1  0
 25 24  1  1
 25 26  1  0
 26 27  1  0
 27 28  1  0
 29 28  1  6
 29 30  1  0
 29 31  1  0
 31 32  1  0
 32 33  2  0
 33 34  1  0
 34 35  1  0
 35 36  2  0
 36 37  1  0
 37 38  2  0
 38 39  1  0
 39 40  2  0
 27 41  1  1
 41 42  1  0
 41 43  1  0
 41 44  1  0
 23 45  1  6
 45 46  2  0
 45 47  1  0
 47 48  1  0
 12 49  1  0
 49 50  1  6
 49 51  1  0
 51 52  1  6
 52 53  1  0
 53 54  1  0
 53 55  2  0
 49 56  1  0
 56 57  2  0
 56 58  1  0
 58 59  1  0
 11  3  1  0
 22 15  1  0
 33 23  1  0
 40 35  1  0
 51  3  1  0
 11  7  1  6
 30 25  1  0
 40 32  1  0
 22 10  1  0
M  END
$$$$
