
     RDKit          3D

 59 67  0  0  0  0  0  0  0  0999 V2000
  206.2360  130.7688  129.1953 C   0  0  0  0  0  0  0  0  0  0  0  0
  205.9575  130.9745  130.6775 C   0  0  0  0  0  0  0  0  0  0  0  0
  206.9494  132.0123  131.2426 C   0  0  1  0  0  0  0  0  0  0  0  0
  207.8498  132.3083  130.1049 C   0  0  0  0  0  0  0  0  0  0  0  0
  207.8056  133.4408  129.4613 C   0  0  0  0  0  0  0  0  0  0  0  0
  206.8402  134.4917  129.8474 C   0  0  0  0  0  0  0  0  0  0  0  0
  206.2336  134.3660  131.0754 N   0  0  0  0  0  0  0  0  0  0  0  0
  205.9842  135.4778  131.9002 C   0  0  0  0  0  0  0  0  0  0  0  0
  206.6419  135.1375  133.2014 C   0  0  0  0  0  0  0  0  0  0  0  0
  206.6396  133.6270  133.1934 C   0  0  1  0  0  0  0  0  0  0  0  0
  206.2684  133.1780  131.8323 C   0  0  2  0  0  0  0  0  0  0  0  0
  207.9002  133.1513  133.8141 C   0  0  1  0  0  0  0  0  0  0  0  0
  207.5751  132.6552  135.1069 N   0  0  0  0  0  0  0  0  0  0  0  0
  208.4443  132.2688  136.1929 C   0  0  0  0  0  0  0  0  0  0  0  0
  206.1428  132.5854  135.2607 C   0  0  0  0  0  0  0  0  0  0  0  0
  205.3068  132.1010  136.2264 C   0  0  0  0  0  0  0  0  0  0  0  0
  203.9144  132.1923  136.1078 C   0  0  0  0  0  0  0  0  0  0  0  0
  203.1549  131.6681  137.1398 O   0  0  0  0  0  0  0  0  0  0  0  0
  203.7814  131.2135  138.3143 C   0  0  0  0  0  0  0  0  0  0  0  0
  203.3377  132.7903  134.9834 C   0  0  0  0  0  0  0  0  0  0  0  0
  204.2019  133.2565  134.0503 C   0  0  0  0  0  0  0  0  0  0  0  0
  205.5986  133.1621  134.1721 C   0  0  0  0  0  0  0  0  0  0  0  0
  201.8803  132.9521  134.8778 C   0  0  1  0  0  0  0  0  0  0  0  0
  201.0979  132.5237  136.0796 C   0  0  0  0  0  0  0  0  0  0  0  0
  200.9148  133.4006  137.2440 C   0  0  2  0  0  0  0  0  0  0  0  0
  199.4956  133.4357  137.7964 C   0  0  0  0  0  0  0  0  0  0  0  0
  198.6954  134.5538  137.3154 C   0  0  2  0  0  0  0  0  0  0  0  0
  199.4755  135.3645  136.3456 C   0  0  0  0  0  0  0  0  0  0  0  0
  200.7242  135.9290  137.0572 N   0  0  0  0  0  0  0  0  0  0  0  0
  201.5862  134.6470  137.2643 C   0  0  0  0  0  0  0  0  0  0  0  0
  201.4610  136.4304  135.7534 C   0  0  0  0  0  0  0  0  0  0  0  0
  201.3125  135.5463  134.6516 C   0  0  0  0  0  0  0  0  0  0  0  0
  201.4465  134.2238  134.2489 C   0  0  0  0  0  0  0  0  0  0  0  0
  201.0642  134.1558  132.9544 N   0  0  0  0  0  0  0  0  0  0  0  0
  200.6862  135.3349  132.4620 C   0  0  0  0  0  0  0  0  0  0  0  0
  200.2339  135.7284  131.2224 C   0  0  0  0  0  0  0  0  0  0  0  0
  199.9117  137.0423  130.9917 C   0  0  0  0  0  0  0  0  0  0  0  0
  200.0429  137.9505  131.9974 C   0  0  0  0  0  0  0  0  0  0  0  0
  200.4985  137.5367  133.2356 C   0  0  0  0  0  0  0  0  0  0  0  0
  200.8374  136.2141  133.5156 C   0  0  0  0  0  0  0  0  0  0  0  0
  198.2003  135.5267  138.3593 C   0  0  0  0  0  0  0  0  0  0  0  0
  196.9320  134.9987  138.9845 C   0  0  0  0  0  0  0  0  0  0  0  0
  197.8652  136.7203  137.7431 F   0  0  0  0  0  0  0  0  0  0  0  0
  199.1482  135.6914  139.3346 F   0  0  0  0  0  0  0  0  0  0  0  0
  201.4842  131.8252  133.9120 C   0  0  0  0  0  0  0  0  0  0  0  0
  202.2104  130.8776  133.6276 O   0  0  0  0  0  0  0  0  0  0  0  0
  200.2112  131.8605  133.3048 O   0  0  0  0  0  0  0  0  0  0  0  0
  199.7925  130.8005  132.4851 C   0  0  0  0  0  0  0  0  0  0  0  0
  208.6759  132.2595  132.9015 C   0  0  2  0  0  0  0  0  0  0  0  0
  209.0994  133.1460  131.8586 O   0  0  0  0  0  0  0  0  0  0  0  0
  207.6709  131.2707  132.3481 C   0  0  2  0  0  0  0  0  0  0  0  0
  208.2570  130.0640  131.9555 O   0  0  0  0  0  0  0  0  0  0  0  0
  209.3940  130.0393  131.1625 C   0  0  0  0  0  0  0  0  0  0  0  0
  210.7564  129.8261  131.7023 C   0  0  0  0  0  0  0  0  0  0  0  0
  209.2709  130.2049  129.9210 O   0  0  0  0  0  0  0  0  0  0  0  0
  209.8775  131.6475  133.4164 C   0  0  0  0  0  0  0  0  0  0  0  0
  210.9875  132.2099  133.2972 O   0  0  0  0  0  0  0  0  0  0  0  0
  209.8467  130.4234  134.0532 O   0  0  0  0  0  0  0  0  0  0  0  0
  210.3336  130.2272  135.3719 C   0  0  0  0  0  0  0  0  0  0  0  0
  1  2  1  0
  3  2  1  6
  3  4  1  0
  4  5  2  0
  5  6  1  0
  6  7  1  0
  7  8  1  0
  8  9  1  0
 10  9  1  6
 10 11  1  0
 10 12  1  0
 12 13  1  1
 13 14  1  0
 13 15  1  0
 15 16  2  0
 16 17  1  0
 17 18  1  0
 18 19  1  0
 17 20  2  0
 20 21  1  0
 21 22  2  0
 20 23  1  0
 23 24  1  0
 25 24  1  6
 25 26  1  0
 26 27  1  0
 27 28  1  0
 29 28  1  6
 29 30  1  0
 29 31  1  0
 31 32  1  0
 32 33  2  0
 33 34  1  0
 34 35  1  0
 35 36  2  0
 36 37  1  0
 37 38  2  0
 38 39  1  0
 39 40  2  0
 27 41  1  1
 41 42  1  0
 41 43  1  0
 41 44  1  0
 23 45  1  6
 45 46  2  0
 45 47  1  0
 47 48  1  0
 12 49  1  0
 49 50  1  6
 49 51  1  0
 51 52  1  6
 52 53  1  0
 53 54  1  0
 53 55  2  0
 49 56  1  0
 56 57  2  0
 56 58  1  0
 58 59  1  0
 11  3  1  0
 22 15  1  0
 33 23  1  0
 40 35  1  0
 51  3  1  0
 11  7  1  6
 30 25  1  0
 40 32  1  0
 22 10  1  0
M  END
$$$$
