
     RDKit          3D

 59 67  0  0  0  0  0  0  0  0999 V2000
  127.3649  140.2926  135.8783 C   0  0  0  0  0  0  0  0  0  0  0  0
  127.4319  140.8177  134.4511 C   0  0  0  0  0  0  0  0  0  0  0  0
  128.1367  142.1901  134.4462 C   0  0  1  0  0  0  0  0  0  0  0  0
  127.8318  142.7576  135.7795 C   0  0  0  0  0  0  0  0  0  0  0  0
  128.7346  142.8568  136.7144 C   0  0  0  0  0  0  0  0  0  0  0  0
  130.1204  142.4000  136.4776 C   0  0  0  0  0  0  0  0  0  0  0  0
  130.4930  142.1761  135.1726 N   0  0  0  0  0  0  0  0  0  0  0  0
  131.7706  142.5184  134.6936 C   0  0  0  0  0  0  0  0  0  0  0  0
  131.5071  143.4033  133.5150 C   0  0  0  0  0  0  0  0  0  0  0  0
  130.1368  142.9582  133.0611 C   0  0  1  0  0  0  0  0  0  0  0  0
  129.5681  142.0859  134.1135 C   0  0  2  0  0  0  0  0  0  0  0  0
  129.3846  144.1499  132.5980 C   0  0  1  0  0  0  0  0  0  0  0  0
  129.3336  144.0933  131.1777 N   0  0  0  0  0  0  0  0  0  0  0  0
  128.9050  145.0931  130.2286 C   0  0  0  0  0  0  0  0  0  0  0  0
  129.8218  142.8161  130.7189 C   0  0  0  0  0  0  0  0  0  0  0  0
  129.8952  142.2011  129.5012 C   0  0  0  0  0  0  0  0  0  0  0  0
  130.4559  140.9265  129.3532 C   0  0  0  0  0  0  0  0  0  0  0  0
  130.4799  140.3891  128.0775 O   0  0  0  0  0  0  0  0  0  0  0  0
  130.7884  141.2065  126.9751 C   0  0  0  0  0  0  0  0  0  0  0  0
  130.9621  140.2429  130.4627 C   0  0  0  0  0  0  0  0  0  0  0  0
  130.8692  140.8877  131.6502 C   0  0  0  0  0  0  0  0  0  0  0  0
  130.3048  142.1665  131.7952 C   0  0  0  0  0  0  0  0  0  0  0  0
  131.6130  138.9334  130.3106 C   0  0  1  0  0  0  0  0  0  0  0  0
  133.0808  138.9082  130.6023 C   0  0  0  0  0  0  0  0  0  0  0  0
  133.6019  138.7902  131.9708 C   0  0  2  0  0  0  0  0  0  0  0  0
  134.7518  137.8039  132.1302 C   0  0  0  0  0  0  0  0  0  0  0  0
  134.3452  136.4813  132.5853 C   0  0  2  0  0  0  0  0  0  0  0  0
  132.8684  136.4200  132.7322 C   0  0  0  0  0  0  0  0  0  0  0  0
  132.4284  137.4560  133.7893 N   0  0  0  0  0  0  0  0  0  0  0  0
  132.6830  138.8032  133.0480 C   0  0  0  0  0  0  0  0  0  0  0  0
  130.8807  137.3750  133.4850 C   0  0  0  0  0  0  0  0  0  0  0  0
  130.5886  137.2455  132.1009 C   0  0  0  0  0  0  0  0  0  0  0  0
  130.8320  137.7921  130.8475 C   0  0  0  0  0  0  0  0  0  0  0  0
  130.1623  137.0426  129.9440 N   0  0  0  0  0  0  0  0  0  0  0  0
  129.4885  136.0368  130.5009 C   0  0  0  0  0  0  0  0  0  0  0  0
  128.6866  135.0468  129.9788 C   0  0  0  0  0  0  0  0  0  0  0  0
  128.1051  134.1217  130.8092 C   0  0  0  0  0  0  0  0  0  0  0  0
  128.3282  134.1919  132.1504 C   0  0  0  0  0  0  0  0  0  0  0  0
  129.1366  135.1931  132.6563 C   0  0  0  0  0  0  0  0  0  0  0  0
  129.7475  136.1534  131.8519 C   0  0  0  0  0  0  0  0  0  0  0  0
  134.9090  136.0209  133.9087 C   0  0  0  0  0  0  0  0  0  0  0  0
  136.3840  135.7369  133.7609 C   0  0  0  0  0  0  0  0  0  0  0  0
  134.3133  134.8222  134.2622 F   0  0  0  0  0  0  0  0  0  0  0  0
  134.7305  136.9920  134.8584 F   0  0  0  0  0  0  0  0  0  0  0  0
  131.6622  138.7554  128.7857 C   0  0  0  0  0  0  0  0  0  0  0  0
  132.6917  138.5450  128.1516 O   0  0  0  0  0  0  0  0  0  0  0  0
  130.4614  138.8323  128.0489 O   0  0  0  0  0  0  0  0  0  0  0  0
  130.3561  139.7180  126.9649 C   0  0  0  0  0  0  0  0  0  0  0  0
  128.0970  144.3244  133.3340 C   0  0  2  0  0  0  0  0  0  0  0  0
  128.5206  144.6586  134.6613 O   0  0  0  0  0  0  0  0  0  0  0  0
  127.4438  142.9579  133.3403 C   0  0  2  0  0  0  0  0  0  0  0  0
  126.0525  143.0224  133.4577 O   0  0  0  0  0  0  0  0  0  0  0  0
  125.4469  143.7838  134.4455 C   0  0  0  0  0  0  0  0  0  0  0  0
  125.8419  145.1774  134.7536 C   0  0  0  0  0  0  0  0  0  0  0  0
  124.5140  143.2730  135.1181 O   0  0  0  0  0  0  0  0  0  0  0  0
  127.2194  145.3913  132.9154 C   0  0  0  0  0  0  0  0  0  0  0  0
  127.1560  146.4614  133.5585 O   0  0  0  0  0  0  0  0  0  0  0  0
  126.4192  145.2693  131.7976 O   0  0  0  0  0  0  0  0  0  0  0  0
  125.0233  145.0227  131.8712 C   0  0  0  0  0  0  0  0  0  0  0  0
  1  2  1  0
  3  2  1  1
  3  4  1  0
  4  5  2  0
  5  6  1  0
  6  7  1  0
  7  8  1  0
  8  9  1  0
 10  9  1  1
 10 11  1  0
 10 12  1  0
 12 13  1  6
 13 14  1  0
 13 15  1  0
 15 16  2  0
 16 17  1  0
 17 18  1  0
 18 19  1  0
 17 20  2  0
 20 21  1  0
 21 22  2  0
 20 23  1  0
 23 24  1  0
 25 24  1  6
 25 26  1  0
 26 27  1  0
 27 28  1  0
 29 28  1  6
 29 30  1  0
 29 31  1  0
 31 32  1  0
 32 33  2  0
 33 34  1  0
 34 35  1  0
 35 36  2  0
 36 37  1  0
 37 38  2  0
 38 39  1  0
 39 40  2  0
 27 41  1  1
 41 42  1  0
 41 43  1  0
 41 44  1  0
 23 45  1  6
 45 46  2  0
 45 47  1  0
 47 48  1  0
 12 49  1  0
 49 50  1  1
 49 51  1  0
 51 52  1  1
 52 53  1  0
 53 54  1  0
 53 55  2  0
 49 56  1  0
 56 57  2  0
 56 58  1  0
 58 59  1  0
 11  3  1  0
 22 15  1  0
 33 23  1  0
 40 35  1  0
 51  3  1  0
 11  7  1  1
 30 25  1  0
 40 32  1  0
 22 10  1  0
M  END
$$$$
