
     RDKit          3D

 59 67  0  0  0  0  0  0  0  0999 V2000
  185.3493  163.3463  133.4444 C   0  0  0  0  0  0  0  0  0  0  0  0
  185.2985  162.7220  134.8318 C   0  0  0  0  0  0  0  0  0  0  0  0
  185.8839  161.2959  134.7701 C   0  0  1  0  0  0  0  0  0  0  0  0
  186.5666  161.2421  133.4572 C   0  0  0  0  0  0  0  0  0  0  0  0
  187.8656  161.2415  133.3501 C   0  0  0  0  0  0  0  0  0  0  0  0
  188.7227  161.2950  134.5533 C   0  0  0  0  0  0  0  0  0  0  0  0
  188.1248  161.0241  135.7621 N   0  0  0  0  0  0  0  0  0  0  0  0
  188.7766  160.2856  136.7664 C   0  0  0  0  0  0  0  0  0  0  0  0
  187.8379  159.1615  137.0776 C   0  0  0  0  0  0  0  0  0  0  0  0
  186.4932  159.7304  136.6902 C   0  0  1  0  0  0  0  0  0  0  0  0
  186.7273  160.9833  135.9368 C   0  0  2  0  0  0  0  0  0  0  0  0
  185.6782  158.6453  136.0913 C   0  0  1  0  0  0  0  0  0  0  0  0
  184.6951  158.2751  137.0503 N   0  0  0  0  0  0  0  0  0  0  0  0
  183.7907  157.1499  137.0581 C   0  0  0  0  0  0  0  0  0  0  0  0
  184.6974  159.2149  138.1443 C   0  0  0  0  0  0  0  0  0  0  0  0
  183.9163  159.3978  139.2501 C   0  0  0  0  0  0  0  0  0  0  0  0
  184.1790  160.4145  140.1766 C   0  0  0  0  0  0  0  0  0  0  0  0
  183.3261  160.5182  141.2621 O   0  0  0  0  0  0  0  0  0  0  0  0
  182.8513  159.3567  141.8978 C   0  0  0  0  0  0  0  0  0  0  0  0
  185.2622  161.2785  139.9908 C   0  0  0  0  0  0  0  0  0  0  0  0
  186.0100  161.0629  138.8822 C   0  0  0  0  0  0  0  0  0  0  0  0
  185.7428  160.0423  137.9540 C   0  0  0  0  0  0  0  0  0  0  0  0
  185.5881  162.3069  140.9897 C   0  0  1  0  0  0  0  0  0  0  0  0
  185.4024  161.8972  142.4172 C   0  0  0  0  0  0  0  0  0  0  0  0
  186.4251  161.1389  143.1502 C   0  0  2  0  0  0  0  0  0  0  0  0
  186.6984  161.6410  144.5622 C   0  0  0  0  0  0  0  0  0  0  0  0
  187.8423  162.5368  144.6663 C   0  0  2  0  0  0  0  0  0  0  0  0
  188.4322  162.7752  143.3241 C   0  0  0  0  0  0  0  0  0  0  0  0
  188.9186  161.4285  142.7462 N   0  0  0  0  0  0  0  0  0  0  0  0
  187.5736  160.6991  142.4485 C   0  0  0  0  0  0  0  0  0  0  0  0
  189.1699  161.9460  141.2753 C   0  0  0  0  0  0  0  0  0  0  0  0
  188.1880  162.8719  140.8324 C   0  0  0  0  0  0  0  0  0  0  0  0
  186.8211  163.0786  140.6983 C   0  0  0  0  0  0  0  0  0  0  0  0
  186.6497  164.3106  140.1696 N   0  0  0  0  0  0  0  0  0  0  0  0
  187.8006  164.9415  139.9392 C   0  0  0  0  0  0  0  0  0  0  0  0
  188.0989  166.1814  139.4201 C   0  0  0  0  0  0  0  0  0  0  0  0
  189.4064  166.5784  139.2922 C   0  0  0  0  0  0  0  0  0  0  0  0
  190.4030  165.7369  139.6826 C   0  0  0  0  0  0  0  0  0  0  0  0
  190.0840  164.4958  140.2019 C   0  0  0  0  0  0  0  0  0  0  0  0
  188.7717  164.0504  140.3502 C   0  0  0  0  0  0  0  0  0  0  0  0
  188.9838  162.0737  145.5402 C   0  0  0  0  0  0  0  0  0  0  0  0
  188.5480  162.0704  146.9852 C   0  0  0  0  0  0  0  0  0  0  0  0
  190.0232  162.9836  145.4472 F   0  0  0  0  0  0  0  0  0  0  0  0
  189.3654  160.8076  145.1822 F   0  0  0  0  0  0  0  0  0  0  0  0
  184.4132  163.2879  140.8605 C   0  0  0  0  0  0  0  0  0  0  0  0
  183.4313  163.0938  140.1503 O   0  0  0  0  0  0  0  0  0  0  0  0
  184.4427  164.4914  141.5963 O   0  0  0  0  0  0  0  0  0  0  0  0
  183.3285  165.3453  141.5943 C   0  0  0  0  0  0  0  0  0  0  0  0
  185.2130  158.9850  134.7136 C   0  0  2  0  0  0  0  0  0  0  0  0
  186.4251  158.9892  133.9498 O   0  0  0  0  0  0  0  0  0  0  0  0
  184.6674  160.3950  134.8047 C   0  0  2  0  0  0  0  0  0  0  0  0
  183.7093  160.6701  133.8250 O   0  0  0  0  0  0  0  0  0  0  0  0
  183.6035  159.8929  132.6817 C   0  0  0  0  0  0  0  0  0  0  0  0
  183.2583  158.4531  132.7072 C   0  0  0  0  0  0  0  0  0  0  0  0
  183.8092  160.4302  131.5623 O   0  0  0  0  0  0  0  0  0  0  0  0
  184.3283  158.0561  134.0517 C   0  0  0  0  0  0  0  0  0  0  0  0
  183.1256  158.3385  133.8606 O   0  0  0  0  0  0  0  0  0  0  0  0
  184.7737  156.8266  133.6104 O   0  0  0  0  0  0  0  0  0  0  0  0
  184.6525  155.6403  134.3803 C   0  0  0  0  0  0  0  0  0  0  0  0
  1  2  1  0
  3  2  1  1
  3  4  1  0
  4  5  2  0
  5  6  1  0
  6  7  1  0
  7  8  1  0
  8  9  1  0
 10  9  1  1
 10 11  1  0
 10 12  1  0
 12 13  1  1
 13 14  1  0
 13 15  1  0
 15 16  2  0
 16 17  1  0
 17 18  1  0
 18 19  1  0
 17 20  2  0
 20 21  1  0
 21 22  2  0
 20 23  1  0
 23 24  1  0
 25 24  1  6
 25 26  1  0
 26 27  1  0
 27 28  1  0
 29 28  1  1
 29 30  1  0
 29 31  1  0
 31 32  1  0
 32 33  2  0
 33 34  1  0
 34 35  1  0
 35 36  2  0
 36 37  1  0
 37 38  2  0
 38 39  1  0
 39 40  2  0
 27 41  1  1
 41 42  1  0
 41 43  1  0
 41 44  1  0
 23 45  1  6
 45 46  2  0
 45 47  1  0
 47 48  1  0
 12 49  1  0
 49 50  1  6
 49 51  1  0
 51 52  1  6
 52 53  1  0
 53 54  1  0
 53 55  2  0
 49 56  1  0
 56 57  2  0
 56 58  1  0
 58 59  1  0
 11  3  1  0
 22 15  1  0
 33 23  1  0
 40 35  1  0
 51  3  1  0
 11  7  1  6
 30 25  1  0
 40 32  1  0
 22 10  1  0
M  END
$$$$
