
     RDKit          3D

 41 45  0  0  0  0  0  0  0  0999 V2000
  149.0537  165.0302  128.7394 C   0  0  1  0  0  0  0  0  0  0  0  0
  150.0473  165.5771  129.6879 C   0  0  0  0  0  0  0  0  0  0  0  0
  149.5005  166.4591  130.7804 C   0  0  0  0  0  0  0  0  0  0  0  0
  148.5275  167.5018  130.2686 C   0  0  1  0  0  0  0  0  0  0  0  0
  149.3161  168.4226  129.3895 C   0  0  0  0  0  0  0  0  0  0  0  0
  147.4207  166.7826  129.5437 C   0  0  1  0  0  0  0  0  0  0  0  0
  146.4828  167.7973  128.9855 C   0  0  0  0  0  0  0  0  0  0  0  0
  145.8868  168.7440  129.9706 C   0  0  0  0  0  0  0  0  0  0  0  0
  146.7736  169.1333  131.1033 C   0  0  2  0  0  0  0  0  0  0  0  0
  147.4560  170.4618  130.7739 C   0  0  0  0  0  0  0  0  0  0  0  0
  147.8695  168.1713  131.4283 C   0  0  2  0  0  0  0  0  0  0  0  0
  148.7531  168.8508  132.3778 C   0  0  0  0  0  0  0  0  0  0  0  0
  149.9895  168.9551  132.3555 O   0  0  0  0  0  0  0  0  0  0  0  0
  148.0622  169.4894  133.5021 C   0  0  0  0  0  0  0  0  0  0  0  0
  146.7616  169.7183  133.4877 C   0  0  0  0  0  0  0  0  0  0  0  0
  146.0935  170.3737  134.6562 C   0  0  2  0  0  0  0  0  0  0  0  0
  145.0212  169.5402  135.2548 C   0  0  0  0  0  0  0  0  0  0  0  0
  144.3120  170.2583  136.3763 C   0  0  2  0  0  0  0  0  0  0  0  0
  143.0190  169.4645  136.6392 C   0  0  0  0  0  0  0  0  0  0  0  0
  143.8672  171.6340  135.9901 C   0  0  0  0  0  0  0  0  0  0  0  0
  144.8727  172.4133  135.2380 C   0  0  0  0  0  0  0  0  0  0  0  0
  145.5860  171.6752  134.1315 C   0  0  1  0  0  0  0  0  0  0  0  0
  146.7741  172.5845  133.7829 C   0  0  0  0  0  0  0  0  0  0  0  0
  144.6608  171.4673  133.0022 C   0  0  0  0  0  0  0  0  0  0  0  0
  144.9083  170.4236  132.0055 C   0  0  0  0  0  0  0  0  0  0  0  0
  145.9124  169.3519  132.3334 C   0  0  1  0  0  0  0  0  0  0  0  0
  145.2181  168.0149  132.6174 C   0  0  0  0  0  0  0  0  0  0  0  0
  145.0883  170.2256  137.6091 C   0  0  0  0  0  0  0  0  0  0  0  0
  145.0192  169.1503  138.4713 O   0  0  0  0  0  0  0  0  0  0  0  0
  145.8670  171.1666  137.9650 O   0  0  0  0  0  0  0  0  0  0  0  0
  147.8265  165.8195  128.4944 C   0  0  0  0  0  0  0  0  0  0  0  0
  147.8142  166.4265  127.0837 C   0  0  0  0  0  0  0  0  0  0  0  0
  146.6913  164.7727  128.3983 C   0  0  0  0  0  0  0  0  0  0  0  0
  149.7295  164.8967  127.4756 O   0  0  0  0  0  0  0  0  0  0  0  0
  150.8756  165.5845  127.1528 C   0  0  0  0  0  0  0  0  0  0  0  0
  151.9629  164.9577  127.2472 O   0  0  0  0  0  0  0  0  0  0  0  0
  150.7798  167.0062  126.7183 C   0  0  0  0  0  0  0  0  0  0  0  0
  151.3616  167.2023  125.3418 C   0  0  0  0  0  0  0  0  0  0  0  0
  152.4780  168.1662  125.4209 C   0  0  0  0  0  0  0  0  0  0  0  0
  153.1631  168.4917  124.2653 O   0  0  0  0  0  0  0  0  0  0  0  0
  152.7876  168.6771  126.5368 O   0  0  0  0  0  0  0  0  0  0  0  0
  1  2  1  0
  2  3  1  0
  3  4  1  0
  4  5  1  6
  4  6  1  0
  6  7  1  6
  7  8  1  0
  8  9  1  0
  9 10  1  6
  9 11  1  0
 11 12  1  6
 12 13  2  0
 12 14  1  0
 14 15  2  0
 15 16  1  0
 16 17  1  6
 17 18  1  0
 18 19  1  1
 18 20  1  0
 20 21  1  0
 21 22  1  0
 22 23  1  6
 22 24  1  0
 24 25  1  0
 25 26  1  0
 26 27  1  1
 18 28  1  0
 28 29  1  0
 28 30  2  0
  6 31  1  0
 31 32  1  0
 31 33  1  0
  1 34  1  6
 34 35  1  0
 35 36  2  0
 35 37  1  0
 37 38  1  0
 38 39  1  0
 39 40  1  0
 39 41  2  0
 31  1  1  0
 11  4  1  0
 26 15  1  0
 26  9  1  0
 22 16  1  0
M  END
$$$$
