
     RDKit          3D

 41 45  0  0  0  0  0  0  0  0999 V2000
  176.9996  162.4450  113.4151 C   0  0  1  0  0  0  0  0  0  0  0  0
  177.1649  162.4456  111.9459 C   0  0  0  0  0  0  0  0  0  0  0  0
  176.0900  163.1523  111.1614 C   0  0  0  0  0  0  0  0  0  0  0  0
  174.6902  162.7773  111.6040 C   0  0  1  0  0  0  0  0  0  0  0  0
  174.5156  161.3268  111.2754 C   0  0  0  0  0  0  0  0  0  0  0  0
  174.5767  163.0765  113.0756 C   0  0  1  0  0  0  0  0  0  0  0  0
  173.2228  162.6617  113.5400 C   0  0  0  0  0  0  0  0  0  0  0  0
  172.0713  163.2823  112.8253 C   0  0  0  0  0  0  0  0  0  0  0  0
  172.2829  163.5432  111.3734 C   0  0  2  0  0  0  0  0  0  0  0  0
  171.7022  162.3825  110.5642 C   0  0  0  0  0  0  0  0  0  0  0  0
  173.7062  163.6817  110.9407 C   0  0  2  0  0  0  0  0  0  0  0  0
  173.6994  163.6781  109.4765 C   0  0  0  0  0  0  0  0  0  0  0  0
  174.4024  163.0187  108.6948 O   0  0  0  0  0  0  0  0  0  0  0  0
  172.7200  164.5849  108.8703 C   0  0  0  0  0  0  0  0  0  0  0  0
  171.7204  165.1017  109.5616 C   0  0  0  0  0  0  0  0  0  0  0  0
  170.7404  166.0237  108.9052 C   0  0  2  0  0  0  0  0  0  0  0  0
  170.6801  167.3602  109.5480 C   0  0  0  0  0  0  0  0  0  0  0  0
  169.6278  168.2390  108.9181 C   0  0  2  0  0  0  0  0  0  0  0  0
  169.4115  169.4100  109.8943 C   0  0  0  0  0  0  0  0  0  0  0  0
  168.2995  167.5587  108.8064 C   0  0  0  0  0  0  0  0  0  0  0  0
  168.3661  166.1617  108.3289 C   0  0  0  0  0  0  0  0  0  0  0  0
  169.4359  165.3011  108.9556 C   0  0  1  0  0  0  0  0  0  0  0  0
  169.5001  164.0652  108.0455 C   0  0  0  0  0  0  0  0  0  0  0  0
  169.0595  164.9820  110.3453 C   0  0  0  0  0  0  0  0  0  0  0  0
  170.0660  164.5633  111.3230 C   0  0  0  0  0  0  0  0  0  0  0  0
  171.5158  164.7963  110.9944 C   0  0  1  0  0  0  0  0  0  0  0  0
  172.0974  165.9321  111.8441 C   0  0  0  0  0  0  0  0  0  0  0  0
  170.0913  168.8138  107.6618 C   0  0  0  0  0  0  0  0  0  0  0  0
  169.2202  169.0540  106.6189 O   0  0  0  0  0  0  0  0  0  0  0  0
  171.3055  169.1275  107.4474 O   0  0  0  0  0  0  0  0  0  0  0  0
  175.6233  162.5061  113.9546 C   0  0  0  0  0  0  0  0  0  0  0  0
  175.2071  161.1763  114.6004 C   0  0  0  0  0  0  0  0  0  0  0  0
  175.7179  163.4394  115.1850 C   0  0  0  0  0  0  0  0  0  0  0  0
  177.5851  161.2185  113.8892 O   0  0  0  0  0  0  0  0  0  0  0  0
  178.9323  160.9496  113.8300 C   0  0  0  0  0  0  0  0  0  0  0  0
  179.5586  160.9295  114.9215 O   0  0  0  0  0  0  0  0  0  0  0  0
  179.5733  160.7019  112.5083 C   0  0  0  0  0  0  0  0  0  0  0  0
  179.6921  159.2271  112.2210 C   0  0  0  0  0  0  0  0  0  0  0  0
  180.6965  158.6364  113.1289 C   0  0  0  0  0  0  0  0  0  0  0  0
  180.8856  157.2672  113.1161 O   0  0  0  0  0  0  0  0  0  0  0  0
  181.3649  159.3871  113.8982 O   0  0  0  0  0  0  0  0  0  0  0  0
  1  2  1  0
  2  3  1  0
  3  4  1  0
  4  5  1  1
  4  6  1  0
  6  7  1  1
  7  8  1  0
  8  9  1  0
  9 10  1  6
  9 11  1  0
 11 12  1  6
 12 13  2  0
 12 14  1  0
 14 15  2  0
 15 16  1  0
 16 17  1  1
 17 18  1  0
 18 19  1  1
 18 20  1  0
 20 21  1  0
 21 22  1  0
 22 23  1  6
 22 24  1  0
 24 25  1  0
 25 26  1  0
 26 27  1  1
 18 28  1  0
 28 29  1  0
 28 30  2  0
  6 31  1  0
 31 32  1  0
 31 33  1  0
  1 34  1  6
 34 35  1  0
 35 36  2  0
 35 37  1  0
 37 38  1  0
 38 39  1  0
 39 40  1  0
 39 41  2  0
 31  1  1  0
 11  4  1  0
 26 15  1  0
 26  9  1  0
 22 16  1  0
M  END
$$$$
