
     RDKit          3D

 41 45  0  0  0  0  0  0  0  0999 V2000
  214.8228  165.9955  144.3001 C   0  0  1  0  0  0  0  0  0  0  0  0
  214.5702  165.3277  145.5947 C   0  0  0  0  0  0  0  0  0  0  0  0
  214.7302  163.8295  145.6064 C   0  0  0  0  0  0  0  0  0  0  0  0
  214.0401  163.1509  144.4405 C   0  0  1  0  0  0  0  0  0  0  0  0
  212.5720  163.3824  144.6234 C   0  0  0  0  0  0  0  0  0  0  0  0
  214.5874  163.7475  143.1707 C   0  0  1  0  0  0  0  0  0  0  0  0
  213.8791  163.1302  142.0139 C   0  0  0  0  0  0  0  0  0  0  0  0
  213.9500  161.6440  141.9253 C   0  0  0  0  0  0  0  0  0  0  0  0
  213.9569  160.9234  143.2298 C   0  0  2  0  0  0  0  0  0  0  0  0
  212.5322  160.4810  143.5672 C   0  0  0  0  0  0  0  0  0  0  0  0
  214.4369  161.7131  144.4037 C   0  0  2  0  0  0  0  0  0  0  0  0
  214.1281  160.9195  145.5949 C   0  0  0  0  0  0  0  0  0  0  0  0
  213.5722  161.2744  146.6460 O   0  0  0  0  0  0  0  0  0  0  0  0
  214.5404  159.5150  145.5140 C   0  0  0  0  0  0  0  0  0  0  0  0
  214.8533  158.9405  144.3668 C   0  0  0  0  0  0  0  0  0  0  0  0
  215.2691  157.5029  144.3265 C   0  0  2  0  0  0  0  0  0  0  0  0
  216.6237  157.3060  143.7527 C   0  0  0  0  0  0  0  0  0  0  0  0
  216.9825  155.8442  143.6493 C   0  0  2  0  0  0  0  0  0  0  0  0
  218.2043  155.7710  142.7150 C   0  0  0  0  0  0  0  0  0  0  0  0
  215.9164  155.0345  142.9805 C   0  0  0  0  0  0  0  0  0  0  0  0
  214.5418  155.3478  143.4237 C   0  0  0  0  0  0  0  0  0  0  0  0
  214.2047  156.8143  143.5395 C   0  0  1  0  0  0  0  0  0  0  0  0
  212.8892  156.8325  144.3327 C   0  0  0  0  0  0  0  0  0  0  0  0
  214.0799  157.3987  142.1912 C   0  0  0  0  0  0  0  0  0  0  0  0
  214.2058  158.8420  141.9792 C   0  0  0  0  0  0  0  0  0  0  0  0
  214.8033  159.6727  143.0825 C   0  0  1  0  0  0  0  0  0  0  0  0
  216.2136  160.1470  142.7128 C   0  0  0  0  0  0  0  0  0  0  0  0
  217.3993  155.3023  144.9364 C   0  0  0  0  0  0  0  0  0  0  0  0
  216.6315  154.3702  145.6041 O   0  0  0  0  0  0  0  0  0  0  0  0
  218.4778  155.6446  145.5179 O   0  0  0  0  0  0  0  0  0  0  0  0
  214.5647  165.2244  143.0640 C   0  0  0  0  0  0  0  0  0  0  0  0
  213.3355  165.7541  142.3109 C   0  0  0  0  0  0  0  0  0  0  0  0
  215.7149  165.6118  142.1044 C   0  0  0  0  0  0  0  0  0  0  0  0
  213.9644  167.1504  144.2646 O   0  0  0  0  0  0  0  0  0  0  0  0
  212.8470  167.2884  145.0540 C   0  0  0  0  0  0  0  0  0  0  0  0
  212.5919  168.4431  145.4848 O   0  0  0  0  0  0  0  0  0  0  0  0
  212.0109  166.0932  145.3569 C   0  0  0  0  0  0  0  0  0  0  0  0
  211.2042  165.6666  144.1573 C   0  0  0  0  0  0  0  0  0  0  0  0
  210.2239  166.7228  143.8327 C   0  0  0  0  0  0  0  0  0  0  0  0
  210.2757  167.3231  142.5887 O   0  0  0  0  0  0  0  0  0  0  0  0
  209.3567  167.0589  144.6913 O   0  0  0  0  0  0  0  0  0  0  0  0
  1  2  1  0
  2  3  1  0
  3  4  1  0
  4  5  1  1
  4  6  1  0
  6  7  1  6
  7  8  1  0
  8  9  1  0
  9 10  1  1
  9 11  1  0
 11 12  1  1
 12 13  2  0
 12 14  1  0
 14 15  2  0
 15 16  1  0
 16 17  1  6
 17 18  1  0
 18 19  1  6
 18 20  1  0
 20 21  1  0
 21 22  1  0
 22 23  1  1
 22 24  1  0
 24 25  1  0
 25 26  1  0
 26 27  1  6
 18 28  1  0
 28 29  1  0
 28 30  2  0
  6 31  1  0
 31 32  1  0
 31 33  1  0
  1 34  1  6
 34 35  1  0
 35 36  2  0
 35 37  1  0
 37 38  1  0
 38 39  1  0
 39 40  1  0
 39 41  2  0
 31  1  1  0
 11  4  1  0
 26 15  1  0
 26  9  1  0
 22 16  1  0
M  END
$$$$
