
     RDKit          3D

 41 45  0  0  0  0  0  0  0  0999 V2000
  187.8550  161.6064  138.8958 C   0  0  1  0  0  0  0  0  0  0  0  0
  187.2289  160.5127  139.6690 C   0  0  0  0  0  0  0  0  0  0  0  0
  185.8782  160.0522  139.1853 C   0  0  0  0  0  0  0  0  0  0  0  0
  184.9297  161.1983  138.8977 C   0  0  1  0  0  0  0  0  0  0  0  0
  184.6608  161.8662  140.2107 C   0  0  0  0  0  0  0  0  0  0  0  0
  185.5906  162.1014  137.8900 C   0  0  1  0  0  0  0  0  0  0  0  0
  184.6939  163.2644  137.6368 C   0  0  0  0  0  0  0  0  0  0  0  0
  183.3175  162.9352  137.1687 C   0  0  0  0  0  0  0  0  0  0  0  0
  182.7307  161.6861  137.7310 C   0  0  2  0  0  0  0  0  0  0  0  0
  181.8546  162.0394  138.9339 C   0  0  0  0  0  0  0  0  0  0  0  0
  183.7128  160.6696  138.2152 C   0  0  2  0  0  0  0  0  0  0  0  0
  182.9427  159.6590  138.9429 C   0  0  0  0  0  0  0  0  0  0  0  0
  183.1572  159.1732  140.0645 O   0  0  0  0  0  0  0  0  0  0  0  0
  181.7595  159.1665  138.2313 C   0  0  0  0  0  0  0  0  0  0  0  0
  181.2502  159.8031  137.1922 C   0  0  0  0  0  0  0  0  0  0  0  0
  180.0397  159.2674  136.4929 C   0  0  2  0  0  0  0  0  0  0  0  0
  180.2764  158.9871  135.0547 C   0  0  0  0  0  0  0  0  0  0  0  0
  179.0197  158.5267  134.3582 C   0  0  2  0  0  0  0  0  0  0  0  0
  179.3034  158.6409  132.8491 C   0  0  0  0  0  0  0  0  0  0  0  0
  177.8536  159.4283  134.6170 C   0  0  0  0  0  0  0  0  0  0  0  0
  177.7106  159.8546  136.0248 C   0  0  0  0  0  0  0  0  0  0  0  0
  178.9799  160.2947  136.7125 C   0  0  1  0  0  0  0  0  0  0  0  0
  178.6034  160.3311  138.2014 C   0  0  0  0  0  0  0  0  0  0  0  0
  179.3960  161.6073  136.1847 C   0  0  0  0  0  0  0  0  0  0  0  0
  180.7789  162.0703  136.3165 C   0  0  0  0  0  0  0  0  0  0  0  0
  181.8347  161.0609  136.6781 C   0  0  1  0  0  0  0  0  0  0  0  0
  182.7336  160.7493  135.4760 C   0  0  0  0  0  0  0  0  0  0  0  0
  178.7385  157.1233  134.6323 C   0  0  0  0  0  0  0  0  0  0  0  0
  179.7563  156.2188  134.8563 O   0  0  0  0  0  0  0  0  0  0  0  0
  177.5594  156.6482  134.6837 O   0  0  0  0  0  0  0  0  0  0  0  0
  186.9615  162.5633  138.2066 C   0  0  0  0  0  0  0  0  0  0  0  0
  186.9912  163.9474  138.8714 C   0  0  0  0  0  0  0  0  0  0  0  0
  187.6514  162.8485  136.8514 C   0  0  0  0  0  0  0  0  0  0  0  0
  188.6449  162.3640  139.8306 O   0  0  0  0  0  0  0  0  0  0  0  0
  189.0760  163.6478  139.5925 C   0  0  0  0  0  0  0  0  0  0  0  0
  188.2438  164.5732  139.7799 O   0  0  0  0  0  0  0  0  0  0  0  0
  190.4743  163.8786  139.1333 C   0  0  0  0  0  0  0  0  0  0  0  0
  190.5757  163.8310  137.6303 C   0  0  0  0  0  0  0  0  0  0  0  0
  190.2123  162.4777  137.1631 C   0  0  0  0  0  0  0  0  0  0  0  0
  189.5128  161.6425  138.0138 O   0  0  0  0  0  0  0  0  0  0  0  0
  190.5429  162.1062  135.9991 O   0  0  0  0  0  0  0  0  0  0  0  0
  1  2  1  0
  2  3  1  0
  3  4  1  0
  4  5  1  1
  4  6  1  0
  6  7  1  1
  7  8  1  0
  8  9  1  0
  9 10  1  1
  9 11  1  0
 11 12  1  1
 12 13  2  0
 12 14  1  0
 14 15  2  0
 15 16  1  0
 16 17  1  6
 17 18  1  0
 18 19  1  6
 18 20  1  0
 20 21  1  0
 21 22  1  0
 22 23  1  1
 22 24  1  0
 24 25  1  0
 25 26  1  0
 26 27  1  6
 18 28  1  0
 28 29  1  0
 28 30  2  0
  6 31  1  0
 31 32  1  0
 31 33  1  0
  1 34  1  1
 34 35  1  0
 35 36  2  0
 35 37  1  0
 37 38  1  0
 38 39  1  0
 39 40  1  0
 39 41  2  0
 31  1  1  0
 11  4  1  0
 26 15  1  0
 26  9  1  0
 22 16  1  0
M  END
$$$$
