
     RDKit          3D

 41 45  0  0  0  0  0  0  0  0999 V2000
  169.2897  148.1034  125.3170 C   0  0  1  0  0  0  0  0  0  0  0  0
  169.0985  146.7361  124.7882 C   0  0  0  0  0  0  0  0  0  0  0  0
  170.3005  146.1091  124.1307 C   0  0  0  0  0  0  0  0  0  0  0  0
  170.9909  147.0363  123.1511 C   0  0  1  0  0  0  0  0  0  0  0  0
  170.0212  147.2723  122.0347 C   0  0  0  0  0  0  0  0  0  0  0  0
  171.3683  148.2915  123.8927 C   0  0  1  0  0  0  0  0  0  0  0  0
  171.9996  149.2382  122.9305 C   0  0  0  0  0  0  0  0  0  0  0  0
  173.1935  148.7247  122.2007 C   0  0  0  0  0  0  0  0  0  0  0  0
  173.1640  147.2732  121.8642 C   0  0  2  0  0  0  0  0  0  0  0  0
  172.6552  147.0993  120.4324 C   0  0  0  0  0  0  0  0  0  0  0  0
  172.2841  146.4263  122.7248 C   0  0  2  0  0  0  0  0  0  0  0  0
  172.2060  145.1147  122.0786 C   0  0  0  0  0  0  0  0  0  0  0  0
  171.2038  144.4275  121.8271 O   0  0  0  0  0  0  0  0  0  0  0  0
  173.5011  144.5539  121.6818 C   0  0  0  0  0  0  0  0  0  0  0  0
  174.5930  145.2931  121.6082 C   0  0  0  0  0  0  0  0  0  0  0  0
  175.8967  144.6823  121.1980 C   0  0  2  0  0  0  0  0  0  0  0  0
  176.9578  144.8343  122.2247 C   0  0  0  0  0  0  0  0  0  0  0  0
  178.2800  144.2826  121.7514 C   0  0  2  0  0  0  0  0  0  0  0  0
  179.3423  144.8341  122.7202 C   0  0  0  0  0  0  0  0  0  0  0  0
  178.6667  144.7926  120.3987 C   0  0  0  0  0  0  0  0  0  0  0  0
  177.5659  144.8072  119.4128 C   0  0  0  0  0  0  0  0  0  0  0  0
  176.2453  145.3449  119.9072 C   0  0  1  0  0  0  0  0  0  0  0  0
  175.2411  144.9184  118.8257 C   0  0  0  0  0  0  0  0  0  0  0  0
  176.3393  146.8076  120.0703 C   0  0  0  0  0  0  0  0  0  0  0  0
  175.4062  147.5325  120.9351 C   0  0  0  0  0  0  0  0  0  0  0  0
  174.5838  146.7402  121.9149 C   0  0  1  0  0  0  0  0  0  0  0  0
  175.0759  146.9584  123.3503 C   0  0  0  0  0  0  0  0  0  0  0  0
  178.3230  142.8298  121.8565 C   0  0  0  0  0  0  0  0  0  0  0  0
  177.1882  142.0979  122.1410 O   0  0  0  0  0  0  0  0  0  0  0  0
  179.3878  142.1527  121.6949 O   0  0  0  0  0  0  0  0  0  0  0  0
  170.2910  148.9664  124.6525 C   0  0  0  0  0  0  0  0  0  0  0  0
  169.6261  150.1073  123.8684 C   0  0  0  0  0  0  0  0  0  0  0  0
  170.9825  149.7348  125.8037 C   0  0  0  0  0  0  0  0  0  0  0  0
  168.0170  148.7656  125.2000 O   0  0  0  0  0  0  0  0  0  0  0  0
  166.8694  148.3146  125.8084 C   0  0  0  0  0  0  0  0  0  0  0  0
  165.7765  148.6272  125.2682 O   0  0  0  0  0  0  0  0  0  0  0  0
  166.9702  147.4975  127.0501 C   0  0  0  0  0  0  0  0  0  0  0  0
  166.6068  146.0575  126.7934 C   0  0  0  0  0  0  0  0  0  0  0  0
  165.3495  146.0061  126.0198 C   0  0  0  0  0  0  0  0  0  0  0  0
  165.4149  145.9741  124.6395 O   0  0  0  0  0  0  0  0  0  0  0  0
  164.2393  145.9906  126.6276 O   0  0  0  0  0  0  0  0  0  0  0  0
  1  2  1  0
  2  3  1  0
  3  4  1  0
  4  5  1  6
  4  6  1  0
  6  7  1  6
  7  8  1  0
  8  9  1  0
  9 10  1  6
  9 11  1  0
 11 12  1  6
 12 13  2  0
 12 14  1  0
 14 15  2  0
 15 16  1  0
 16 17  1  1
 17 18  1  0
 18 19  1  1
 18 20  1  0
 20 21  1  0
 21 22  1  0
 22 23  1  6
 22 24  1  0
 24 25  1  0
 25 26  1  0
 26 27  1  1
 18 28  1  0
 28 29  1  0
 28 30  2  0
  6 31  1  0
 31 32  1  0
 31 33  1  0
  1 34  1  6
 34 35  1  0
 35 36  2  0
 35 37  1  0
 37 38  1  0
 38 39  1  0
 39 40  1  0
 39 41  2  0
 31  1  1  0
 11  4  1  0
 26 15  1  0
 26  9  1  0
 22 16  1  0
M  END
$$$$
