
     RDKit          3D

 41 45  0  0  0  0  0  0  0  0999 V2000
  170.6837  166.3465  107.9432 C   0  0  1  0  0  0  0  0  0  0  0  0
  171.9326  165.8316  107.3423 C   0  0  0  0  0  0  0  0  0  0  0  0
  172.7219  164.8657  108.1876 C   0  0  0  0  0  0  0  0  0  0  0  0
  172.8975  165.3361  109.6172 C   0  0  1  0  0  0  0  0  0  0  0  0
  173.7407  166.5721  109.5566 C   0  0  0  0  0  0  0  0  0  0  0  0
  171.5274  165.5729  110.1958 C   0  0  1  0  0  0  0  0  0  0  0  0
  171.6830  166.0895  111.5849 C   0  0  0  0  0  0  0  0  0  0  0  0
  172.4639  165.2267  112.5164 C   0  0  0  0  0  0  0  0  0  0  0  0
  173.5937  164.4757  111.8997 C   0  0  2  0  0  0  0  0  0  0  0  0
  174.8904  165.2605  112.1047 C   0  0  0  0  0  0  0  0  0  0  0  0
  173.4831  164.2305  110.4301 C   0  0  2  0  0  0  0  0  0  0  0  0
  174.7831  163.7168  109.9938 C   0  0  0  0  0  0  0  0  0  0  0  0
  175.4809  164.0758  109.0326 O   0  0  0  0  0  0  0  0  0  0  0  0
  175.3158  162.6291  110.8198 C   0  0  0  0  0  0  0  0  0  0  0  0
  174.8398  162.3638  112.0228 C   0  0  0  0  0  0  0  0  0  0  0  0
  175.4121  161.2442  112.8354 C   0  0  2  0  0  0  0  0  0  0  0  0
  174.4034  160.2196  113.2040 C   0  0  0  0  0  0  0  0  0  0  0  0
  174.9896  159.1480  114.0896 C   0  0  2  0  0  0  0  0  0  0  0  0
  173.7914  158.3918  114.6924 C   0  0  0  0  0  0  0  0  0  0  0  0
  175.7383  159.7102  115.2570 C   0  0  0  0  0  0  0  0  0  0  0  0
  176.6194  160.8499  114.9272 C   0  0  0  0  0  0  0  0  0  0  0  0
  176.0243  161.9038  114.0256 C   0  0  1  0  0  0  0  0  0  0  0  0
  177.2339  162.7401  113.5814 C   0  0  0  0  0  0  0  0  0  0  0  0
  175.0211  162.6831  114.7748 C   0  0  0  0  0  0  0  0  0  0  0  0
  173.9836  163.4461  114.0782 C   0  0  0  0  0  0  0  0  0  0  0  0
  173.7400  163.1500  112.6231 C   0  0  1  0  0  0  0  0  0  0  0  0
  172.4157  162.4029  112.4273 C   0  0  0  0  0  0  0  0  0  0  0  0
  175.7596  158.1789  113.3203 C   0  0  0  0  0  0  0  0  0  0  0  0
  175.4410  157.8886  112.0094 O   0  0  0  0  0  0  0  0  0  0  0  0
  176.7577  157.5496  113.7960 O   0  0  0  0  0  0  0  0  0  0  0  0
  170.6166  166.4439  109.4180 C   0  0  0  0  0  0  0  0  0  0  0  0
  170.6313  167.9048  109.8916 C   0  0  0  0  0  0  0  0  0  0  0  0
  169.1773  166.0080  109.7817 C   0  0  0  0  0  0  0  0  0  0  0  0
  170.5011  167.6761  107.4232 O   0  0  0  0  0  0  0  0  0  0  0  0
  169.5189  168.5328  107.8615 C   0  0  0  0  0  0  0  0  0  0  0  0
  169.8963  169.5967  108.4179 O   0  0  0  0  0  0  0  0  0  0  0  0
  168.0876  168.1701  107.6636 C   0  0  0  0  0  0  0  0  0  0  0  0
  167.3652  169.2057  106.8406 C   0  0  0  0  0  0  0  0  0  0  0  0
  168.1266  169.4553  105.5998 C   0  0  0  0  0  0  0  0  0  0  0  0
  169.4414  169.0350  105.5265 O   0  0  0  0  0  0  0  0  0  0  0  0
  167.5679  170.0445  104.6288 O   0  0  0  0  0  0  0  0  0  0  0  0
  1  2  1  0
  2  3  1  0
  3  4  1  0
  4  5  1  6
  4  6  1  0
  6  7  1  1
  7  8  1  0
  8  9  1  0
  9 10  1  6
  9 11  1  0
 11 12  1  6
 12 13  2  0
 12 14  1  0
 14 15  2  0
 15 16  1  0
 16 17  1  1
 17 18  1  0
 18 19  1  1
 18 20  1  0
 20 21  1  0
 21 22  1  0
 22 23  1  6
 22 24  1  0
 24 25  1  0
 25 26  1  0
 26 27  1  1
 18 28  1  0
 28 29  1  0
 28 30  2  0
  6 31  1  0
 31 32  1  0
 31 33  1  0
  1 34  1  6
 34 35  1  0
 35 36  2  0
 35 37  1  0
 37 38  1  0
 38 39  1  0
 39 40  1  0
 39 41  2  0
 31  1  1  0
 11  4  1  0
 26 15  1  0
 26  9  1  0
 22 16  1  0
M  END
$$$$
