
     RDKit          3D

 41 45  0  0  0  0  0  0  0  0999 V2000
  180.1522  160.8764  134.6357 C   0  0  1  0  0  0  0  0  0  0  0  0
  180.7838  159.7967  135.4240 C   0  0  0  0  0  0  0  0  0  0  0  0
  182.1598  160.0915  135.9625 C   0  0  0  0  0  0  0  0  0  0  0  0
  183.0859  160.6923  134.9245 C   0  0  1  0  0  0  0  0  0  0  0  0
  183.2982  159.6367  133.8837 C   0  0  0  0  0  0  0  0  0  0  0  0
  182.4316  161.9387  134.3896 C   0  0  1  0  0  0  0  0  0  0  0  0
  183.3044  162.5128  133.3269 C   0  0  0  0  0  0  0  0  0  0  0  0
  184.7022  162.8317  133.7346 C   0  0  0  0  0  0  0  0  0  0  0  0
  185.3049  161.9069  134.7359 C   0  0  2  0  0  0  0  0  0  0  0  0
  186.1354  160.8492  134.0073 C   0  0  0  0  0  0  0  0  0  0  0  0
  184.3360  161.1586  135.5923 C   0  0  2  0  0  0  0  0  0  0  0  0
  185.1105  160.1444  136.3103 C   0  0  0  0  0  0  0  0  0  0  0  0
  184.8759  158.9331  136.4430 O   0  0  0  0  0  0  0  0  0  0  0  0
  186.3269  160.6502  136.9535 C   0  0  0  0  0  0  0  0  0  0  0  0
  186.8497  161.8223  136.6422 C   0  0  0  0  0  0  0  0  0  0  0  0
  188.0941  162.3028  137.3220 C   0  0  2  0  0  0  0  0  0  0  0  0
  187.9075  163.5939  138.0301 C   0  0  0  0  0  0  0  0  0  0  0  0
  189.1960  164.0933  138.6356 C   0  0  2  0  0  0  0  0  0  0  0  0
  188.9541  165.5720  138.9906 C   0  0  0  0  0  0  0  0  0  0  0  0
  190.3297  164.0951  137.6588 C   0  0  0  0  0  0  0  0  0  0  0  0
  190.4198  162.8789  136.8240 C   0  0  0  0  0  0  0  0  0  0  0  0
  189.1195  162.3820  136.2408 C   0  0  1  0  0  0  0  0  0  0  0  0
  189.4507  160.9661  135.7452 C   0  0  0  0  0  0  0  0  0  0  0  0
  188.6847  163.2895  135.1628 C   0  0  0  0  0  0  0  0  0  0  0  0
  187.2868  163.3316  134.7290 C   0  0  0  0  0  0  0  0  0  0  0  0
  186.2478  162.7037  135.6181 C   0  0  1  0  0  0  0  0  0  0  0  0
  185.3933  163.7738  136.3074 C   0  0  0  0  0  0  0  0  0  0  0  0
  189.5058  163.4029  139.8811 C   0  0  0  0  0  0  0  0  0  0  0  0
  188.5180  163.0922  140.7932 O   0  0  0  0  0  0  0  0  0  0  0  0
  190.6837  163.0466  140.2034 O   0  0  0  0  0  0  0  0  0  0  0  0
  181.0401  161.8040  133.9007 C   0  0  0  0  0  0  0  0  0  0  0  0
  180.9544  161.5885  132.3826 C   0  0  0  0  0  0  0  0  0  0  0  0
  180.3834  163.1958  134.0603 C   0  0  0  0  0  0  0  0  0  0  0  0
  179.3153  160.2299  133.6592 O   0  0  0  0  0  0  0  0  0  0  0  0
  178.7219  159.0061  133.8612 C   0  0  0  0  0  0  0  0  0  0  0  0
  177.5430  159.0094  134.3019 O   0  0  0  0  0  0  0  0  0  0  0  0
  179.4840  157.7626  133.5577 C   0  0  0  0  0  0  0  0  0  0  0  0
  180.2495  157.2775  134.7620 C   0  0  0  0  0  0  0  0  0  0  0  0
  180.7891  155.9312  134.4825 C   0  0  0  0  0  0  0  0  0  0  0  0
  180.0143  154.8257  134.7797 O   0  0  0  0  0  0  0  0  0  0  0  0
  181.9435  155.8106  133.9777 O   0  0  0  0  0  0  0  0  0  0  0  0
  1  2  1  0
  2  3  1  0
  3  4  1  0
  4  5  1  6
  4  6  1  0
  6  7  1  6
  7  8  1  0
  8  9  1  0
  9 10  1  6
  9 11  1  0
 11 12  1  6
 12 13  2  0
 12 14  1  0
 14 15  2  0
 15 16  1  0
 16 17  1  6
 17 18  1  0
 18 19  1  1
 18 20  1  0
 20 21  1  0
 21 22  1  0
 22 23  1  6
 22 24  1  0
 24 25  1  0
 25 26  1  0
 26 27  1  1
 18 28  1  0
 28 29  1  0
 28 30  2  0
  6 31  1  0
 31 32  1  0
 31 33  1  0
  1 34  1  6
 34 35  1  0
 35 36  2  0
 35 37  1  0
 37 38  1  0
 38 39  1  0
 39 40  1  0
 39 41  2  0
 31  1  1  0
 11  4  1  0
 26 15  1  0
 26  9  1  0
 22 16  1  0
M  END
$$$$
