
     RDKit          3D

 41 45  0  0  0  0  0  0  0  0999 V2000
  129.0087  160.9729  155.8438 C   0  0  1  0  0  0  0  0  0  0  0  0
  130.0460  160.0296  155.3749 C   0  0  0  0  0  0  0  0  0  0  0  0
  131.4604  160.5492  155.3787 C   0  0  0  0  0  0  0  0  0  0  0  0
  131.5864  161.9284  154.7639 C   0  0  1  0  0  0  0  0  0  0  0  0
  131.2347  161.7811  153.3158 C   0  0  0  0  0  0  0  0  0  0  0  0
  130.6642  162.8531  155.5137 C   0  0  1  0  0  0  0  0  0  0  0  0
  130.7342  164.2029  154.8861 C   0  0  0  0  0  0  0  0  0  0  0  0
  132.0901  164.8178  154.8148 C   0  0  0  0  0  0  0  0  0  0  0  0
  133.2154  163.8656  154.5957 C   0  0  2  0  0  0  0  0  0  0  0  0
  133.5481  163.8154  153.1037 C   0  0  0  0  0  0  0  0  0  0  0  0
  132.9603  162.4541  155.0134 C   0  0  2  0  0  0  0  0  0  0  0  0
  134.0703  161.6564  154.4882 C   0  0  0  0  0  0  0  0  0  0  0  0
  134.0331  160.5914  153.8525 O   0  0  0  0  0  0  0  0  0  0  0  0
  135.4000  162.2099  154.7617 C   0  0  0  0  0  0  0  0  0  0  0  0
  135.5737  163.4613  155.1461 C   0  0  0  0  0  0  0  0  0  0  0  0
  136.9487  163.9887  155.4149 C   0  0  2  0  0  0  0  0  0  0  0  0
  137.1161  164.4951  156.8000 C   0  0  0  0  0  0  0  0  0  0  0  0
  138.4837  165.0941  157.0174 C   0  0  2  0  0  0  0  0  0  0  0  0
  138.3920  165.9003  158.3260 C   0  0  0  0  0  0  0  0  0  0  0  0
  138.8537  166.0859  155.9596 C   0  0  0  0  0  0  0  0  0  0  0  0
  138.5301  165.6603  154.5819 C   0  0  0  0  0  0  0  0  0  0  0  0
  137.1654  165.0466  154.3850 C   0  0  1  0  0  0  0  0  0  0  0  0
  137.2458  164.3981  152.9947 C   0  0  0  0  0  0  0  0  0  0  0  0
  136.1349  166.0973  154.4788 C   0  0  0  0  0  0  0  0  0  0  0  0
  134.7404  165.7629  154.7752 C   0  0  0  0  0  0  0  0  0  0  0  0
  134.4388  164.3937  155.3215 C   0  0  1  0  0  0  0  0  0  0  0  0
  134.0632  164.4635  156.8062 C   0  0  0  0  0  0  0  0  0  0  0  0
  139.4935  164.0637  157.2235 C   0  0  0  0  0  0  0  0  0  0  0  0
  139.2696  163.0009  158.0747 O   0  0  0  0  0  0  0  0  0  0  0  0
  140.6254  164.0743  156.6431 O   0  0  0  0  0  0  0  0  0  0  0  0
  129.2551  162.4195  155.6545 C   0  0  0  0  0  0  0  0  0  0  0  0
  128.3321  163.0170  154.5822 C   0  0  0  0  0  0  0  0  0  0  0  0
  128.7180  163.0879  156.9423 C   0  0  0  0  0  0  0  0  0  0  0  0
  127.8084  160.6503  155.1178 O   0  0  0  0  0  0  0  0  0  0  0  0
  127.3476  159.3660  154.9483 C   0  0  0  0  0  0  0  0  0  0  0  0
  126.1009  159.1972  154.9872 O   0  0  0  0  0  0  0  0  0  0  0  0
  128.3218  158.2597  154.7331 C   0  0  0  0  0  0  0  0  0  0  0  0
  127.8606  156.9836  155.3892 C   0  0  0  0  0  0  0  0  0  0  0  0
  126.7491  156.4097  154.6037 C   0  0  0  0  0  0  0  0  0  0  0  0
  125.4963  156.9857  154.6988 O   0  0  0  0  0  0  0  0  0  0  0  0
  126.9591  155.4074  153.8597 O   0  0  0  0  0  0  0  0  0  0  0  0
  1  2  1  0
  2  3  1  0
  3  4  1  0
  4  5  1  6
  4  6  1  0
  6  7  1  6
  7  8  1  0
  8  9  1  0
  9 10  1  6
  9 11  1  0
 11 12  1  6
 12 13  2  0
 12 14  1  0
 14 15  2  0
 15 16  1  0
 16 17  1  1
 17 18  1  0
 18 19  1  1
 18 20  1  0
 20 21  1  0
 21 22  1  0
 22 23  1  6
 22 24  1  0
 24 25  1  0
 25 26  1  0
 26 27  1  1
 18 28  1  0
 28 29  1  0
 28 30  2  0
  6 31  1  0
 31 32  1  0
 31 33  1  0
  1 34  1  6
 34 35  1  0
 35 36  2  0
 35 37  1  0
 37 38  1  0
 38 39  1  0
 39 40  1  0
 39 41  2  0
 31  1  1  0
 11  4  1  0
 26 15  1  0
 26  9  1  0
 22 16  1  0
M  END
$$$$
