
     RDKit          3D

 41 45  0  0  0  0  0  0  0  0999 V2000
  188.9390  160.7785  131.9739 C   0  0  1  0  0  0  0  0  0  0  0  0
  189.1090  159.6627  132.9289 C   0  0  0  0  0  0  0  0  0  0  0  0
  188.1060  159.5966  134.0514 C   0  0  0  0  0  0  0  0  0  0  0  0
  187.8867  160.9339  134.7293 C   0  0  1  0  0  0  0  0  0  0  0  0
  189.1815  161.2915  135.3911 C   0  0  0  0  0  0  0  0  0  0  0  0
  187.4599  161.9205  133.6747 C   0  0  1  0  0  0  0  0  0  0  0  0
  187.2931  163.2557  134.3152 C   0  0  0  0  0  0  0  0  0  0  0  0
  186.3353  163.3152  135.4557 C   0  0  0  0  0  0  0  0  0  0  0  0
  186.2816  162.0969  136.3123 C   0  0  2  0  0  0  0  0  0  0  0  0
  187.1900  162.2958  137.5266 C   0  0  0  0  0  0  0  0  0  0  0  0
  186.7271  160.8276  135.6622 C   0  0  2  0  0  0  0  0  0  0  0  0
  186.8352  159.8288  136.7275 C   0  0  0  0  0  0  0  0  0  0  0  0
  187.7677  159.0478  136.9728 O   0  0  0  0  0  0  0  0  0  0  0  0
  185.6709  159.7580  137.6155 C   0  0  0  0  0  0  0  0  0  0  0  0
  184.7635  160.7166  137.6607 C   0  0  0  0  0  0  0  0  0  0  0  0
  183.5888  160.6067  138.5822 C   0  0  2  0  0  0  0  0  0  0  0  0
  182.2866  160.6546  137.8714 C   0  0  0  0  0  0  0  0  0  0  0  0
  181.1222  160.6242  138.8304 C   0  0  2  0  0  0  0  0  0  0  0  0
  179.8889  161.0560  138.0159 C   0  0  0  0  0  0  0  0  0  0  0  0
  181.2523  161.6333  139.9278 C   0  0  0  0  0  0  0  0  0  0  0  0
  182.6004  161.7143  140.5277 C   0  0  0  0  0  0  0  0  0  0  0  0
  183.7549  161.7253  139.5557 C   0  0  1  0  0  0  0  0  0  0  0  0
  184.9854  161.4589  140.4360 C   0  0  0  0  0  0  0  0  0  0  0  0
  183.8041  163.0271  138.8646 C   0  0  0  0  0  0  0  0  0  0  0  0
  184.5015  163.1772  137.5858 C   0  0  0  0  0  0  0  0  0  0  0  0
  184.8623  161.9315  136.8228 C   0  0  1  0  0  0  0  0  0  0  0  0
  183.9743  161.7679  135.5838 C   0  0  0  0  0  0  0  0  0  0  0  0
  180.8607  159.2743  139.3132 C   0  0  0  0  0  0  0  0  0  0  0  0
  180.7500  159.0044  140.6620 O   0  0  0  0  0  0  0  0  0  0  0  0
  180.7186  158.2749  138.5390 O   0  0  0  0  0  0  0  0  0  0  0  0
  188.3195  162.0258  132.4733 C   0  0  0  0  0  0  0  0  0  0  0  0
  189.3398  163.1702  132.5624 C   0  0  0  0  0  0  0  0  0  0  0  0
  187.4050  162.5063  131.3215 C   0  0  0  0  0  0  0  0  0  0  0  0
  190.2577  161.1188  131.5081 O   0  0  0  0  0  0  0  0  0  0  0  0
  191.4108  160.7384  132.1534 C   0  0  0  0  0  0  0  0  0  0  0  0
  192.4786  160.7849  131.4887 O   0  0  0  0  0  0  0  0  0  0  0  0
  191.3444  160.2977  133.5750 C   0  0  0  0  0  0  0  0  0  0  0  0
  192.7201  160.0626  134.1439 C   0  0  0  0  0  0  0  0  0  0  0  0
  193.6940  160.9045  133.4195 C   0  0  0  0  0  0  0  0  0  0  0  0
  193.3158  161.4857  132.2238 O   0  0  0  0  0  0  0  0  0  0  0  0
  194.8510  161.0811  133.9014 O   0  0  0  0  0  0  0  0  0  0  0  0
  1  2  1  0
  2  3  1  0
  3  4  1  0
  4  5  1  1
  4  6  1  0
  6  7  1  1
  7  8  1  0
  8  9  1  0
  9 10  1  1
  9 11  1  0
 11 12  1  1
 12 13  2  0
 12 14  1  0
 14 15  2  0
 15 16  1  0
 16 17  1  6
 17 18  1  0
 18 19  1  6
 18 20  1  0
 20 21  1  0
 21 22  1  0
 22 23  1  1
 22 24  1  0
 24 25  1  0
 25 26  1  0
 26 27  1  6
 18 28  1  0
 28 29  1  0
 28 30  2  0
  6 31  1  0
 31 32  1  0
 31 33  1  0
  1 34  1  1
 34 35  1  0
 35 36  2  0
 35 37  1  0
 37 38  1  0
 38 39  1  0
 39 40  1  0
 39 41  2  0
 31  1  1  0
 11  4  1  0
 26 15  1  0
 26  9  1  0
 22 16  1  0
M  END
$$$$
