
     RDKit          3D

 41 45  0  0  0  0  0  0  0  0999 V2000
  169.9694  161.8797  110.1881 C   0  0  1  0  0  0  0  0  0  0  0  0
  169.7414  163.2504  109.6828 C   0  0  0  0  0  0  0  0  0  0  0  0
  170.9686  164.1126  109.5380 C   0  0  0  0  0  0  0  0  0  0  0  0
  171.8711  164.0677  110.7544 C   0  0  1  0  0  0  0  0  0  0  0  0
  171.0982  164.6844  111.8790 C   0  0  0  0  0  0  0  0  0  0  0  0
  172.2419  162.6289  110.9999 C   0  0  1  0  0  0  0  0  0  0  0  0
  173.0853  162.5602  112.2266 C   0  0  0  0  0  0  0  0  0  0  0  0
  174.3246  163.3881  112.2115 C   0  0  0  0  0  0  0  0  0  0  0  0
  174.2208  164.6847  111.4841 C   0  0  2  0  0  0  0  0  0  0  0  0
  173.9132  165.7994  112.4852 C   0  0  0  0  0  0  0  0  0  0  0  0
  173.1557  164.7578  110.4390 C   0  0  2  0  0  0  0  0  0  0  0  0
  173.0611  166.1627  110.0372 C   0  0  0  0  0  0  0  0  0  0  0  0
  172.0514  166.8748  109.9225 O   0  0  0  0  0  0  0  0  0  0  0  0
  174.3475  166.7965  109.7333 C   0  0  0  0  0  0  0  0  0  0  0  0
  175.4976  166.2627  110.1029 C   0  0  0  0  0  0  0  0  0  0  0  0
  176.7903  166.9421  109.7736 C   0  0  2  0  0  0  0  0  0  0  0  0
  177.6994  166.0973  108.9592 C   0  0  0  0  0  0  0  0  0  0  0  0
  179.0244  166.7752  108.7122 C   0  0  2  0  0  0  0  0  0  0  0  0
  179.9772  165.6757  108.2078 C   0  0  0  0  0  0  0  0  0  0  0  0
  179.6465  167.3008  109.9677 C   0  0  0  0  0  0  0  0  0  0  0  0
  178.7065  167.9968  110.8711 C   0  0  0  0  0  0  0  0  0  0  0  0
  177.3786  167.3147  111.0933 C   0  0  1  0  0  0  0  0  0  0  0  0
  176.5102  168.3965  111.7534 C   0  0  0  0  0  0  0  0  0  0  0  0
  177.5724  166.1249  111.9427 C   0  0  0  0  0  0  0  0  0  0  0  0
  176.5884  165.0406  111.9592 C   0  0  0  0  0  0  0  0  0  0  0  0
  175.5672  164.9909  110.8551 C   0  0  1  0  0  0  0  0  0  0  0  0
  175.8616  163.8417  109.8841 C   0  0  0  0  0  0  0  0  0  0  0  0
  178.9275  167.7715  107.6531 C   0  0  0  0  0  0  0  0  0  0  0  0
  177.7158  168.0833  107.0710 O   0  0  0  0  0  0  0  0  0  0  0  0
  179.9332  168.4085  107.2044 O   0  0  0  0  0  0  0  0  0  0  0  0
  171.1269  161.6577  111.0825 C   0  0  0  0  0  0  0  0  0  0  0  0
  170.6833  161.3727  112.5249 C   0  0  0  0  0  0  0  0  0  0  0  0
  171.7061  160.2887  110.6533 C   0  0  0  0  0  0  0  0  0  0  0  0
  168.7887  161.5179  110.9275 O   0  0  0  0  0  0  0  0  0  0  0  0
  167.6556  162.2956  110.9736 C   0  0  0  0  0  0  0  0  0  0  0  0
  166.8015  162.0080  111.8521 O   0  0  0  0  0  0  0  0  0  0  0  0
  167.4944  163.4148  110.0037 C   0  0  0  0  0  0  0  0  0  0  0  0
  168.0617  163.0600  108.6532 C   0  0  0  0  0  0  0  0  0  0  0  0
  168.7034  164.2550  108.0685 C   0  0  0  0  0  0  0  0  0  0  0  0
  168.4083  165.4978  108.5965 O   0  0  0  0  0  0  0  0  0  0  0  0
  169.5090  164.1242  107.1010 O   0  0  0  0  0  0  0  0  0  0  0  0
  1  2  1  0
  2  3  1  0
  3  4  1  0
  4  5  1  1
  4  6  1  0
  6  7  1  1
  7  8  1  0
  8  9  1  0
  9 10  1  1
  9 11  1  0
 11 12  1  1
 12 13  2  0
 12 14  1  0
 14 15  2  0
 15 16  1  0
 16 17  1  1
 17 18  1  0
 18 19  1  6
 18 20  1  0
 20 21  1  0
 21 22  1  0
 22 23  1  1
 22 24  1  0
 24 25  1  0
 25 26  1  0
 26 27  1  6
 18 28  1  0
 28 29  1  0
 28 30  2  0
  6 31  1  0
 31 32  1  0
 31 33  1  0
  1 34  1  1
 34 35  1  0
 35 36  2  0
 35 37  1  0
 37 38  1  0
 38 39  1  0
 39 40  1  0
 39 41  2  0
 31  1  1  0
 11  4  1  0
 26 15  1  0
 26  9  1  0
 22 16  1  0
M  END
$$$$
