
     RDKit          3D

 41 45  0  0  0  0  0  0  0  0999 V2000
  161.9458  146.0379  127.4908 C   0  0  1  0  0  0  0  0  0  0  0  0
  163.1112  146.1203  128.3969 C   0  0  0  0  0  0  0  0  0  0  0  0
  163.8293  147.4445  128.4293 C   0  0  0  0  0  0  0  0  0  0  0  0
  164.1073  148.0015  127.0478 C   0  0  1  0  0  0  0  0  0  0  0  0
  165.0699  147.0577  126.3957 C   0  0  0  0  0  0  0  0  0  0  0  0
  162.7922  148.1124  126.3226 C   0  0  1  0  0  0  0  0  0  0  0  0
  163.0535  148.6070  124.9413 C   0  0  0  0  0  0  0  0  0  0  0  0
  163.7773  149.9062  124.8414 C   0  0  0  0  0  0  0  0  0  0  0  0
  164.7994  150.1537  125.8973 C   0  0  2  0  0  0  0  0  0  0  0  0
  166.1767  149.7511  125.3680 C   0  0  0  0  0  0  0  0  0  0  0  0
  164.6075  149.4015  127.1738 C   0  0  2  0  0  0  0  0  0  0  0  0
  165.8300  149.5904  127.9573 C   0  0  0  0  0  0  0  0  0  0  0  0
  166.5233  148.7408  128.5381 O   0  0  0  0  0  0  0  0  0  0  0  0
  166.2799  150.9821  128.0568 C   0  0  0  0  0  0  0  0  0  0  0  0
  165.8261  151.9256  127.2517 C   0  0  0  0  0  0  0  0  0  0  0  0
  166.3114  153.3354  127.3855 C   0  0  2  0  0  0  0  0  0  0  0  0
  165.2180  154.3033  127.6513 C   0  0  0  0  0  0  0  0  0  0  0  0
  165.7249  155.7235  127.6999 C   0  0  2  0  0  0  0  0  0  0  0  0
  164.4797  156.6235  127.5980 C   0  0  0  0  0  0  0  0  0  0  0  0
  166.5719  156.0744  126.5171 C   0  0  0  0  0  0  0  0  0  0  0  0
  167.5519  155.0357  126.1368 C   0  0  0  0  0  0  0  0  0  0  0  0
  167.0336  153.6184  126.1108 C   0  0  1  0  0  0  0  0  0  0  0  0
  168.3046  152.7584  126.0410 C   0  0  0  0  0  0  0  0  0  0  0  0
  166.1454  153.4404  124.9470 C   0  0  0  0  0  0  0  0  0  0  0  0
  165.1655  152.3533  124.9044 C   0  0  0  0  0  0  0  0  0  0  0  0
  164.8367  151.6423  126.1892 C   0  0  1  0  0  0  0  0  0  0  0  0
  163.4362  152.0203  126.6851 C   0  0  0  0  0  0  0  0  0  0  0  0
  166.3611  156.0221  128.9766 C   0  0  0  0  0  0  0  0  0  0  0  0
  166.2281  155.1763  130.0588 O   0  0  0  0  0  0  0  0  0  0  0  0
  167.0685  157.0609  129.1742 O   0  0  0  0  0  0  0  0  0  0  0  0
  161.9462  146.8974  126.2865 C   0  0  0  0  0  0  0  0  0  0  0  0
  162.1290  146.0752  125.0023 C   0  0  0  0  0  0  0  0  0  0  0  0
  160.4849  147.3856  126.1442 C   0  0  0  0  0  0  0  0  0  0  0  0
  161.8806  144.6737  127.0362 O   0  0  0  0  0  0  0  0  0  0  0  0
  161.4967  143.6252  127.8386 C   0  0  0  0  0  0  0  0  0  0  0  0
  161.4389  142.4879  127.3027 O   0  0  0  0  0  0  0  0  0  0  0  0
  161.1732  143.8779  129.2707 C   0  0  0  0  0  0  0  0  0  0  0  0
  159.7078  143.6643  129.5507 C   0  0  0  0  0  0  0  0  0  0  0  0
  159.4118  142.2179  129.5044 C   0  0  0  0  0  0  0  0  0  0  0  0
  158.1633  141.7781  129.9021 O   0  0  0  0  0  0  0  0  0  0  0  0
  160.2986  141.4089  129.1028 O   0  0  0  0  0  0  0  0  0  0  0  0
  1  2  1  0
  2  3  1  0
  3  4  1  0
  4  5  1  6
  4  6  1  0
  6  7  1  6
  7  8  1  0
  8  9  1  0
  9 10  1  6
  9 11  1  0
 11 12  1  6
 12 13  2  0
 12 14  1  0
 14 15  2  0
 15 16  1  0
 16 17  1  6
 17 18  1  0
 18 19  1  6
 18 20  1  0
 20 21  1  0
 21 22  1  0
 22 23  1  6
 22 24  1  0
 24 25  1  0
 25 26  1  0
 26 27  1  1
 18 28  1  0
 28 29  1  0
 28 30  2  0
  6 31  1  0
 31 32  1  0
 31 33  1  0
  1 34  1  6
 34 35  1  0
 35 36  2  0
 35 37  1  0
 37 38  1  0
 38 39  1  0
 39 40  1  0
 39 41  2  0
 31  1  1  0
 11  4  1  0
 26 15  1  0
 26  9  1  0
 22 16  1  0
M  END
$$$$
