
     RDKit          3D

 41 45  0  0  0  0  0  0  0  0999 V2000
  171.3403  168.1586  109.3140 C   0  0  1  0  0  0  0  0  0  0  0  0
  172.5834  168.4855  108.5833 C   0  0  0  0  0  0  0  0  0  0  0  0
  173.5016  167.3268  108.2924 C   0  0  0  0  0  0  0  0  0  0  0  0
  173.7342  166.4381  109.4975 C   0  0  1  0  0  0  0  0  0  0  0  0
  174.4705  167.2697  110.5019 C   0  0  0  0  0  0  0  0  0  0  0  0
  172.3913  165.9605  109.9836 C   0  0  1  0  0  0  0  0  0  0  0  0
  172.5976  165.1291  111.2031 C   0  0  0  0  0  0  0  0  0  0  0  0
  173.5050  163.9571  111.0458 C   0  0  0  0  0  0  0  0  0  0  0  0
  174.6473  164.1518  110.1087 C   0  0  2  0  0  0  0  0  0  0  0  0
  175.8883  164.5564  110.9060 C   0  0  0  0  0  0  0  0  0  0  0  0
  174.4588  165.2068  109.0677 C   0  0  2  0  0  0  0  0  0  0  0  0
  175.7634  165.4046  108.4330 C   0  0  0  0  0  0  0  0  0  0  0  0
  176.3649  166.4647  108.2001 O   0  0  0  0  0  0  0  0  0  0  0  0
  176.4349  164.1672  108.0240 C   0  0  0  0  0  0  0  0  0  0  0  0
  176.0628  162.9840  108.4776 C   0  0  0  0  0  0  0  0  0  0  0  0
  176.7752  161.7436  108.0358 C   0  0  2  0  0  0  0  0  0  0  0  0
  175.8781  160.7625  107.3758 C   0  0  0  0  0  0  0  0  0  0  0  0
  176.6054  159.4907  107.0153 C   0  0  2  0  0  0  0  0  0  0  0  0
  175.5140  158.4500  106.7041 C   0  0  0  0  0  0  0  0  0  0  0  0
  177.3832  158.9261  108.1624 C   0  0  0  0  0  0  0  0  0  0  0  0
  178.1470  159.9277  108.9355 C   0  0  0  0  0  0  0  0  0  0  0  0
  177.4111  161.2016  109.2721 C   0  0  1  0  0  0  0  0  0  0  0  0
  178.5181  162.1586  109.7398 C   0  0  0  0  0  0  0  0  0  0  0  0
  176.4014  160.9270  110.3113 C   0  0  0  0  0  0  0  0  0  0  0  0
  175.2622  161.8246  110.5132 C   0  0  0  0  0  0  0  0  0  0  0  0
  174.9465  162.8256  109.4350 C   0  0  1  0  0  0  0  0  0  0  0  0
  173.6757  162.4320  108.6731 C   0  0  0  0  0  0  0  0  0  0  0  0
  177.3970  159.6514  105.8024 C   0  0  0  0  0  0  0  0  0  0  0  0
  177.3018  160.7911  105.0302 O   0  0  0  0  0  0  0  0  0  0  0  0
  178.2131  158.7700  105.3835 O   0  0  0  0  0  0  0  0  0  0  0  0
  171.3642  166.9983  110.2316 C   0  0  0  0  0  0  0  0  0  0  0  0
  171.2943  167.4359  111.7021 C   0  0  0  0  0  0  0  0  0  0  0  0
  169.9916  166.3102  110.0408 C   0  0  0  0  0  0  0  0  0  0  0  0
  171.0183  169.3168  110.1057 O   0  0  0  0  0  0  0  0  0  0  0  0
  170.2433  169.2672  111.2404 C   0  0  0  0  0  0  0  0  0  0  0  0
  169.0154  169.0396  111.0834 O   0  0  0  0  0  0  0  0  0  0  0  0
  170.8772  169.4816  112.5714 C   0  0  0  0  0  0  0  0  0  0  0  0
  171.5197  170.8419  112.6632 C   0  0  0  0  0  0  0  0  0  0  0  0
  170.4668  171.8774  112.6348 C   0  0  0  0  0  0  0  0  0  0  0  0
  170.8380  173.2087  112.6573 O   0  0  0  0  0  0  0  0  0  0  0  0
  169.2496  171.5332  112.5891 O   0  0  0  0  0  0  0  0  0  0  0  0
  1  2  1  0
  2  3  1  0
  3  4  1  0
  4  5  1  1
  4  6  1  0
  6  7  1  1
  7  8  1  0
  8  9  1  0
  9 10  1  1
  9 11  1  0
 11 12  1  1
 12 13  2  0
 12 14  1  0
 14 15  2  0
 15 16  1  0
 16 17  1  1
 17 18  1  0
 18 19  1  6
 18 20  1  0
 20 21  1  0
 21 22  1  0
 22 23  1  1
 22 24  1  0
 24 25  1  0
 25 26  1  0
 26 27  1  6
 18 28  1  0
 28 29  1  0
 28 30  2  0
  6 31  1  0
 31 32  1  0
 31 33  1  0
  1 34  1  1
 34 35  1  0
 35 36  2  0
 35 37  1  0
 37 38  1  0
 38 39  1  0
 39 40  1  0
 39 41  2  0
 31  1  1  0
 11  4  1  0
 26 15  1  0
 26  9  1  0
 22 16  1  0
M  END
$$$$
