
     RDKit          3D

 41 45  0  0  0  0  0  0  0  0999 V2000
  187.8991  161.5234  134.4182 C   0  0  1  0  0  0  0  0  0  0  0  0
  187.3563  160.3052  135.0563 C   0  0  0  0  0  0  0  0  0  0  0  0
  186.4805  160.5265  136.2623 C   0  0  0  0  0  0  0  0  0  0  0  0
  187.0751  161.5051  137.2545 C   0  0  1  0  0  0  0  0  0  0  0  0
  188.3158  160.8623  137.7929 C   0  0  0  0  0  0  0  0  0  0  0  0
  187.3369  162.7973  136.5267 C   0  0  1  0  0  0  0  0  0  0  0  0
  187.9736  163.7542  137.4752 C   0  0  0  0  0  0  0  0  0  0  0  0
  187.2079  164.0422  138.7212 C   0  0  0  0  0  0  0  0  0  0  0  0
  186.4264  162.8991  139.2721 C   0  0  2  0  0  0  0  0  0  0  0  0
  187.2483  162.2061  140.3600 C   0  0  0  0  0  0  0  0  0  0  0  0
  186.0538  161.8361  138.2907 C   0  0  2  0  0  0  0  0  0  0  0  0
  185.5272  160.7142  139.0705 C   0  0  0  0  0  0  0  0  0  0  0  0
  185.8143  159.5093  138.9957 O   0  0  0  0  0  0  0  0  0  0  0  0
  184.5240  161.0874  140.0723 C   0  0  0  0  0  0  0  0  0  0  0  0
  184.3549  162.3372  140.4642 C   0  0  0  0  0  0  0  0  0  0  0  0
  183.3194  162.6770  141.4907 C   0  0  2  0  0  0  0  0  0  0  0  0
  182.3129  163.6512  140.9998 C   0  0  0  0  0  0  0  0  0  0  0  0
  181.3317  164.0366  142.0792 C   0  0  2  0  0  0  0  0  0  0  0  0
  180.6095  165.2966  141.5674 C   0  0  0  0  0  0  0  0  0  0  0  0
  182.0052  164.4482  143.3506 C   0  0  0  0  0  0  0  0  0  0  0  0
  183.1274  163.5773  143.7581 C   0  0  0  0  0  0  0  0  0  0  0  0
  184.0895  163.1861  142.6631 C   0  0  1  0  0  0  0  0  0  0  0  0
  184.9054  162.0382  143.2767 C   0  0  0  0  0  0  0  0  0  0  0  0
  184.9127  164.3518  142.2914 C   0  0  0  0  0  0  0  0  0  0  0  0
  185.5948  164.4126  140.9971 C   0  0  0  0  0  0  0  0  0  0  0  0
  185.1705  163.4467  139.9242 C   0  0  1  0  0  0  0  0  0  0  0  0
  184.3864  164.1620  138.8179 C   0  0  0  0  0  0  0  0  0  0  0  0
  180.3137  163.0113  142.2690 C   0  0  0  0  0  0  0  0  0  0  0  0
  180.2324  161.9182  141.4307 O   0  0  0  0  0  0  0  0  0  0  0  0
  179.4501  163.0540  143.2021 O   0  0  0  0  0  0  0  0  0  0  0  0
  188.1218  162.7096  135.2739 C   0  0  0  0  0  0  0  0  0  0  0  0
  189.6180  162.9873  135.4811 C   0  0  0  0  0  0  0  0  0  0  0  0
  187.6938  163.9154  134.4039 C   0  0  0  0  0  0  0  0  0  0  0  0
  189.1758  161.1569  133.8637 O   0  0  0  0  0  0  0  0  0  0  0  0
  189.4081  159.9640  133.2204 C   0  0  0  0  0  0  0  0  0  0  0  0
  190.5157  159.8370  132.6362 O   0  0  0  0  0  0  0  0  0  0  0  0
  188.3626  158.9030  133.2428 C   0  0  0  0  0  0  0  0  0  0  0  0
  188.8003  157.6816  132.4756 C   0  0  0  0  0  0  0  0  0  0  0  0
  187.6111  157.0158  131.9061 C   0  0  0  0  0  0  0  0  0  0  0  0
  187.7881  155.9079  131.0988 O   0  0  0  0  0  0  0  0  0  0  0  0
  186.4565  157.4652  132.1650 O   0  0  0  0  0  0  0  0  0  0  0  0
  1  2  1  0
  2  3  1  0
  3  4  1  0
  4  5  1  1
  4  6  1  0
  6  7  1  1
  7  8  1  0
  8  9  1  0
  9 10  1  1
  9 11  1  0
 11 12  1  1
 12 13  2  0
 12 14  1  0
 14 15  2  0
 15 16  1  0
 16 17  1  6
 17 18  1  0
 18 19  1  6
 18 20  1  0
 20 21  1  0
 21 22  1  0
 22 23  1  1
 22 24  1  0
 24 25  1  0
 25 26  1  0
 26 27  1  6
 18 28  1  0
 28 29  1  0
 28 30  2  0
  6 31  1  0
 31 32  1  0
 31 33  1  0
  1 34  1  1
 34 35  1  0
 35 36  2  0
 35 37  1  0
 37 38  1  0
 38 39  1  0
 39 40  1  0
 39 41  2  0
 31  1  1  0
 11  4  1  0
 26 15  1  0
 26  9  1  0
 22 16  1  0
M  END
$$$$
