
     RDKit          3D

 41 45  0  0  0  0  0  0  0  0999 V2000
  132.1266  136.1179  130.9326 C   0  0  1  0  0  0  0  0  0  0  0  0
  130.7753  136.3367  130.3740 C   0  0  0  0  0  0  0  0  0  0  0  0
  130.0967  137.6216  130.7728 C   0  0  0  0  0  0  0  0  0  0  0  0
  130.1791  137.8980  132.2604 C   0  0  1  0  0  0  0  0  0  0  0  0
  129.3897  136.8200  132.9366 C   0  0  0  0  0  0  0  0  0  0  0  0
  131.6345  137.9075  132.6472 C   0  0  1  0  0  0  0  0  0  0  0  0
  131.7319  138.1233  134.1185 C   0  0  0  0  0  0  0  0  0  0  0  0
  131.0800  139.3583  134.6396 C   0  0  0  0  0  0  0  0  0  0  0  0
  129.8336  139.7718  133.9350 C   0  0  2  0  0  0  0  0  0  0  0  0
  128.6224  139.2360  134.6999 C   0  0  0  0  0  0  0  0  0  0  0  0
  129.6900  139.2813  132.5311 C   0  0  2  0  0  0  0  0  0  0  0  0
  128.3157  139.5797  132.1234 C   0  0  0  0  0  0  0  0  0  0  0  0
  127.4844  138.8359  131.5798 O   0  0  0  0  0  0  0  0  0  0  0  0
  127.8816  140.9513  132.4053 C   0  0  0  0  0  0  0  0  0  0  0  0
  128.5380  141.7377  133.2389 C   0  0  0  0  0  0  0  0  0  0  0  0
  128.0615  143.1326  133.5005 C   0  0  2  0  0  0  0  0  0  0  0  0
  129.0736  144.1648  133.1638 C   0  0  0  0  0  0  0  0  0  0  0  0
  128.5974  145.5530  133.5136 C   0  0  2  0  0  0  0  0  0  0  0  0
  129.8461  146.4532  133.4760 C   0  0  0  0  0  0  0  0  0  0  0  0
  128.0755  145.6483  134.9129 C   0  0  0  0  0  0  0  0  0  0  0  0
  127.2003  144.5281  135.3170 C   0  0  0  0  0  0  0  0  0  0  0  0
  127.6820  143.1474  134.9436 C   0  0  1  0  0  0  0  0  0  0  0  0
  126.4516  142.2531  135.1582 C   0  0  0  0  0  0  0  0  0  0  0  0
  128.8266  142.7778  135.7969 C   0  0  0  0  0  0  0  0  0  0  0  0
  129.7659  141.7313  135.3886 C   0  0  0  0  0  0  0  0  0  0  0  0
  129.7536  141.2869  133.9511 C   0  0  1  0  0  0  0  0  0  0  0  0
  130.9952  141.7928  133.2076 C   0  0  0  0  0  0  0  0  0  0  0  0
  127.6713  146.0697  132.5140 C   0  0  0  0  0  0  0  0  0  0  0  0
  127.4736  147.4259  132.3532 O   0  0  0  0  0  0  0  0  0  0  0  0
  126.9979  145.3200  131.7375 O   0  0  0  0  0  0  0  0  0  0  0  0
  132.4400  136.7330  132.2412 C   0  0  0  0  0  0  0  0  0  0  0  0
  132.5645  135.6771  133.3495 C   0  0  0  0  0  0  0  0  0  0  0  0
  133.9002  137.2277  132.1103 C   0  0  0  0  0  0  0  0  0  0  0  0
  132.2762  134.6948  131.0880 O   0  0  0  0  0  0  0  0  0  0  0  0
  132.8432  134.1090  132.1953 C   0  0  0  0  0  0  0  0  0  0  0  0
  132.7320  132.8597  132.2998 O   0  0  0  0  0  0  0  0  0  0  0  0
  133.5446  134.9598  133.1970 C   0  0  0  0  0  0  0  0  0  0  0  0
  132.6412  135.3110  134.3511 C   0  0  0  0  0  0  0  0  0  0  0  0
  133.0925  134.5871  135.5569 C   0  0  0  0  0  0  0  0  0  0  0  0
  133.2244  133.2123  135.5008 O   0  0  0  0  0  0  0  0  0  0  0  0
  133.3513  135.2315  136.6152 O   0  0  0  0  0  0  0  0  0  0  0  0
  1  2  1  0
  2  3  1  0
  3  4  1  0
  4  5  1  1
  4  6  1  0
  6  7  1  1
  7  8  1  0
  8  9  1  0
  9 10  1  1
  9 11  1  0
 11 12  1  1
 12 13  2  0
 12 14  1  0
 14 15  2  0
 15 16  1  0
 16 17  1  1
 17 18  1  0
 18 19  1  1
 18 20  1  0
 20 21  1  0
 21 22  1  0
 22 23  1  6
 22 24  1  0
 24 25  1  0
 25 26  1  0
 26 27  1  6
 18 28  1  0
 28 29  1  0
 28 30  2  0
  6 31  1  0
 31 32  1  0
 31 33  1  0
  1 34  1  1
 34 35  1  0
 35 36  2  0
 35 37  1  0
 37 38  1  0
 38 39  1  0
 39 40  1  0
 39 41  2  0
 31  1  1  0
 11  4  1  0
 26 15  1  0
 26  9  1  0
 22 16  1  0
M  END
$$$$
