
     RDKit          3D

 41 45  0  0  0  0  0  0  0  0999 V2000
  163.5336  143.5729  126.7005 C   0  0  1  0  0  0  0  0  0  0  0  0
  162.3759  143.8280  127.5839 C   0  0  0  0  0  0  0  0  0  0  0  0
  161.1956  144.5117  126.9436 C   0  0  0  0  0  0  0  0  0  0  0  0
  161.5882  145.7160  126.1120 C   0  0  1  0  0  0  0  0  0  0  0  0
  162.1470  146.7262  127.0657 C   0  0  0  0  0  0  0  0  0  0  0  0
  162.5799  145.2569  125.0759 C   0  0  1  0  0  0  0  0  0  0  0  0
  163.0191  146.4403  124.2838 C   0  0  0  0  0  0  0  0  0  0  0  0
  161.9352  147.2132  123.6133 C   0  0  0  0  0  0  0  0  0  0  0  0
  160.6456  147.2861  124.3567 C   0  0  2  0  0  0  0  0  0  0  0  0
  160.5975  148.5909  125.1533 C   0  0  0  0  0  0  0  0  0  0  0  0
  160.4018  146.1882  125.3403 C   0  0  2  0  0  0  0  0  0  0  0  0
  159.2281  146.5818  126.1225 C   0  0  0  0  0  0  0  0  0  0  0  0
  159.0761  146.5827  127.3540 O   0  0  0  0  0  0  0  0  0  0  0  0
  158.0867  147.0340  125.3213 C   0  0  0  0  0  0  0  0  0  0  0  0
  158.2110  147.3709  124.0504 C   0  0  0  0  0  0  0  0  0  0  0  0
  157.0204  147.8286  123.2667 C   0  0  2  0  0  0  0  0  0  0  0  0
  156.7496  146.9848  122.0760 C   0  0  0  0  0  0  0  0  0  0  0  0
  155.5961  147.5166  121.2617 C   0  0  2  0  0  0  0  0  0  0  0  0
  155.6691  146.7990  119.9013 C   0  0  0  0  0  0  0  0  0  0  0  0
  155.7311  148.9750  120.9543 C   0  0  0  0  0  0  0  0  0  0  0  0
  156.1705  149.8029  122.0969 C   0  0  0  0  0  0  0  0  0  0  0  0
  157.3131  149.2481  122.9120 C   0  0  1  0  0  0  0  0  0  0  0  0
  157.3113  150.1049  124.1871 C   0  0  0  0  0  0  0  0  0  0  0  0
  158.5654  149.3547  122.1406 C   0  0  0  0  0  0  0  0  0  0  0  0
  159.7240  148.5192  122.4625 C   0  0  0  0  0  0  0  0  0  0  0  0
  159.5121  147.3215  123.3485 C   0  0  1  0  0  0  0  0  0  0  0  0
  159.6074  146.0189  122.5459 C   0  0  0  0  0  0  0  0  0  0  0  0
  154.3131  147.1669  121.8578 C   0  0  0  0  0  0  0  0  0  0  0  0
  153.1301  147.6765  121.3626 O   0  0  0  0  0  0  0  0  0  0  0  0
  154.2002  146.3833  122.8536 O   0  0  0  0  0  0  0  0  0  0  0  0
  163.7529  144.4972  125.5662 C   0  0  0  0  0  0  0  0  0  0  0  0
  164.9920  145.3782  125.7831 C   0  0  0  0  0  0  0  0  0  0  0  0
  164.2086  143.5927  124.3966 C   0  0  0  0  0  0  0  0  0  0  0  0
  164.7043  143.6431  127.5350 O   0  0  0  0  0  0  0  0  0  0  0  0
  164.8723  144.5798  128.5275 C   0  0  0  0  0  0  0  0  0  0  0  0
  165.5340  145.6095  128.2342 O   0  0  0  0  0  0  0  0  0  0  0  0
  164.2788  144.3378  129.8723 C   0  0  0  0  0  0  0  0  0  0  0  0
  163.3586  145.4601  130.2787 C   0  0  0  0  0  0  0  0  0  0  0  0
  162.5361  145.0211  131.4244 C   0  0  0  0  0  0  0  0  0  0  0  0
  163.0707  145.0922  132.6970 O   0  0  0  0  0  0  0  0  0  0  0  0
  161.3625  144.5909  131.2255 O   0  0  0  0  0  0  0  0  0  0  0  0
  1  2  1  0
  2  3  1  0
  3  4  1  0
  4  5  1  1
  4  6  1  0
  6  7  1  1
  7  8  1  0
  8  9  1  0
  9 10  1  1
  9 11  1  0
 11 12  1  1
 12 13  2  0
 12 14  1  0
 14 15  2  0
 15 16  1  0
 16 17  1  6
 17 18  1  0
 18 19  1  6
 18 20  1  0
 20 21  1  0
 21 22  1  0
 22 23  1  1
 22 24  1  0
 24 25  1  0
 25 26  1  0
 26 27  1  6
 18 28  1  0
 28 29  1  0
 28 30  2  0
  6 31  1  0
 31 32  1  0
 31 33  1  0
  1 34  1  1
 34 35  1  0
 35 36  2  0
 35 37  1  0
 37 38  1  0
 38 39  1  0
 39 40  1  0
 39 41  2  0
 31  1  1  0
 11  4  1  0
 26 15  1  0
 26  9  1  0
 22 16  1  0
M  END
$$$$
