
     RDKit          3D

 41 45  0  0  0  0  0  0  0  0999 V2000
  184.9656  163.0629  142.3905 C   0  0  1  0  0  0  0  0  0  0  0  0
  185.2750  161.6310  142.1904 C   0  0  0  0  0  0  0  0  0  0  0  0
  185.8981  161.2694  140.8670 C   0  0  0  0  0  0  0  0  0  0  0  0
  185.1856  161.8965  139.6859 C   0  0  1  0  0  0  0  0  0  0  0  0
  183.8171  161.2899  139.6452 C   0  0  0  0  0  0  0  0  0  0  0  0
  185.1744  163.3880  139.8934 C   0  0  1  0  0  0  0  0  0  0  0  0
  184.4282  164.0170  138.7673 C   0  0  0  0  0  0  0  0  0  0  0  0
  184.9405  163.7183  137.3998 C   0  0  0  0  0  0  0  0  0  0  0  0
  185.5063  162.3525  137.2112 C   0  0  2  0  0  0  0  0  0  0  0  0
  184.4298  161.4394  136.6224 C   0  0  0  0  0  0  0  0  0  0  0  0
  185.9937  161.6762  138.4510 C   0  0  2  0  0  0  0  0  0  0  0  0
  186.2652  160.2840  138.0877 C   0  0  0  0  0  0  0  0  0  0  0  0
  185.9120  159.2440  138.6653 O   0  0  0  0  0  0  0  0  0  0  0  0
  187.0657  160.1177  136.8709 C   0  0  0  0  0  0  0  0  0  0  0  0
  187.2417  161.1010  136.0070 C   0  0  0  0  0  0  0  0  0  0  0  0
  188.0662  160.8905  134.7753 C   0  0  2  0  0  0  0  0  0  0  0  0
  189.2207  161.8188  134.6835 C   0  0  0  0  0  0  0  0  0  0  0  0
  189.9847  161.6389  133.3950 C   0  0  2  0  0  0  0  0  0  0  0  0
  190.8870  162.8791  133.2587 C   0  0  0  0  0  0  0  0  0  0  0  0
  189.0964  161.6541  132.1908 C   0  0  0  0  0  0  0  0  0  0  0  0
  187.8536  160.8680  132.3374 C   0  0  0  0  0  0  0  0  0  0  0  0
  187.1111  161.0455  133.6394 C   0  0  1  0  0  0  0  0  0  0  0  0
  186.1046  159.8849  133.6553 C   0  0  0  0  0  0  0  0  0  0  0  0
  186.4695  162.3731  133.6631 C   0  0  0  0  0  0  0  0  0  0  0  0
  186.0742  162.9982  134.9268 C   0  0  0  0  0  0  0  0  0  0  0  0
  186.6380  162.4370  136.2041 C   0  0  1  0  0  0  0  0  0  0  0  0
  187.6830  163.3828  136.8072 C   0  0  0  0  0  0  0  0  0  0  0  0
  190.8641  160.4782  133.4510 C   0  0  0  0  0  0  0  0  0  0  0  0
  191.6114  160.1988  134.5770 O   0  0  0  0  0  0  0  0  0  0  0  0
  190.9979  159.6607  132.4855 O   0  0  0  0  0  0  0  0  0  0  0  0
  184.6594  163.8764  141.1933 C   0  0  0  0  0  0  0  0  0  0  0  0
  183.1770  164.2745  141.1415 C   0  0  0  0  0  0  0  0  0  0  0  0
  185.3442  165.2396  141.4511 C   0  0  0  0  0  0  0  0  0  0  0  0
  183.8068  163.1127  143.2428 O   0  0  0  0  0  0  0  0  0  0  0  0
  183.8311  162.7737  144.5752 C   0  0  0  0  0  0  0  0  0  0  0  0
  182.8297  162.1589  145.0260 O   0  0  0  0  0  0  0  0  0  0  0  0
  185.0127  163.1424  145.4043 C   0  0  0  0  0  0  0  0  0  0  0  0
  184.7285  164.3474  146.2639 C   0  0  0  0  0  0  0  0  0  0  0  0
  184.0025  163.9169  147.4761 C   0  0  0  0  0  0  0  0  0  0  0  0
  183.6823  162.5804  147.6240 O   0  0  0  0  0  0  0  0  0  0  0  0
  183.6880  164.7714  148.3553 O   0  0  0  0  0  0  0  0  0  0  0  0
  1  2  1  0
  2  3  1  0
  3  4  1  0
  4  5  1  6
  4  6  1  0
  6  7  1  6
  7  8  1  0
  8  9  1  0
  9 10  1  6
  9 11  1  0
 11 12  1  6
 12 13  2  0
 12 14  1  0
 14 15  2  0
 15 16  1  0
 16 17  1  6
 17 18  1  0
 18 19  1  6
 18 20  1  0
 20 21  1  0
 21 22  1  0
 22 23  1  1
 22 24  1  0
 24 25  1  0
 25 26  1  0
 26 27  1  1
 18 28  1  0
 28 29  1  0
 28 30  2  0
  6 31  1  0
 31 32  1  0
 31 33  1  0
  1 34  1  1
 34 35  1  0
 35 36  2  0
 35 37  1  0
 37 38  1  0
 38 39  1  0
 39 40  1  0
 39 41  2  0
 31  1  1  0
 11  4  1  0
 26 15  1  0
 26  9  1  0
 22 16  1  0
M  END
$$$$
