
     RDKit          3D

 41 45  0  0  0  0  0  0  0  0999 V2000
  190.1906  162.1542  131.6430 C   0  0  1  0  0  0  0  0  0  0  0  0
  189.9880  160.6898  131.6244 C   0  0  0  0  0  0  0  0  0  0  0  0
  190.1058  160.0246  130.2775 C   0  0  0  0  0  0  0  0  0  0  0  0
  189.3360  160.7471  129.1906 C   0  0  1  0  0  0  0  0  0  0  0  0
  187.8867  160.6336  129.5502 C   0  0  0  0  0  0  0  0  0  0  0  0
  189.8320  162.1682  129.1418 C   0  0  1  0  0  0  0  0  0  0  0  0
  189.0461  162.9088  128.1148 C   0  0  0  0  0  0  0  0  0  0  0  0
  189.0701  162.3358  126.7390 C   0  0  0  0  0  0  0  0  0  0  0  0
  189.1255  160.8484  126.6648 C   0  0  2  0  0  0  0  0  0  0  0  0
  187.7087  160.3008  126.4855 C   0  0  0  0  0  0  0  0  0  0  0  0
  189.6893  160.1604  127.8651 C   0  0  2  0  0  0  0  0  0  0  0  0
  189.4215  158.7313  127.6911 C   0  0  0  0  0  0  0  0  0  0  0  0
  188.9324  157.9254  128.4980 O   0  0  0  0  0  0  0  0  0  0  0  0
  189.7890  158.1993  126.3754 C   0  0  0  0  0  0  0  0  0  0  0  0
  190.0242  158.9861  125.3411 C   0  0  0  0  0  0  0  0  0  0  0  0
  190.3963  158.4032  124.0133 C   0  0  2  0  0  0  0  0  0  0  0  0
  191.7126  158.8786  123.5187 C   0  0  0  0  0  0  0  0  0  0  0  0
  192.0237  158.3396  122.1443 C   0  0  2  0  0  0  0  0  0  0  0  0
  193.1917  159.1882  121.6089 C   0  0  0  0  0  0  0  0  0  0  0  0
  190.9011  158.5452  121.1763 C   0  0  0  0  0  0  0  0  0  0  0  0
  189.5614  158.2376  121.7189 C   0  0  0  0  0  0  0  0  0  0  0  0
  189.2726  158.7683  123.1020 C   0  0  1  0  0  0  0  0  0  0  0  0
  188.0020  158.0187  123.5307 C   0  0  0  0  0  0  0  0  0  0  0  0
  189.0932  160.2308  123.0406 C   0  0  0  0  0  0  0  0  0  0  0  0
  189.2487  161.0614  124.2363 C   0  0  0  0  0  0  0  0  0  0  0  0
  189.9271  160.4590  125.4367 C   0  0  1  0  0  0  0  0  0  0  0  0
  191.3287  161.0491  125.6311 C   0  0  0  0  0  0  0  0  0  0  0  0
  192.4925  156.9609  122.2027 C   0  0  0  0  0  0  0  0  0  0  0  0
  192.3659  156.1143  121.1203 O   0  0  0  0  0  0  0  0  0  0  0  0
  193.0399  156.4564  123.2343 O   0  0  0  0  0  0  0  0  0  0  0  0
  189.8456  162.9140  130.4212 C   0  0  0  0  0  0  0  0  0  0  0  0
  188.5938  163.7799  130.6258 C   0  0  0  0  0  0  0  0  0  0  0  0
  190.9539  163.9858  130.2914 C   0  0  0  0  0  0  0  0  0  0  0  0
  189.3647  162.6649  132.7054 O   0  0  0  0  0  0  0  0  0  0  0  0
  188.8563  161.8804  133.7138 C   0  0  0  0  0  0  0  0  0  0  0  0
  187.6090  161.9031  133.8806 O   0  0  0  0  0  0  0  0  0  0  0  0
  189.7832  161.0607  134.5434 C   0  0  0  0  0  0  0  0  0  0  0  0
  190.7696  160.3082  133.6876 C   0  0  0  0  0  0  0  0  0  0  0  0
  192.1296  160.8202  133.9524 C   0  0  0  0  0  0  0  0  0  0  0  0
  193.2162  160.0953  133.5006 O   0  0  0  0  0  0  0  0  0  0  0  0
  192.2786  161.9075  134.5831 O   0  0  0  0  0  0  0  0  0  0  0  0
  1  2  1  0
  2  3  1  0
  3  4  1  0
  4  5  1  1
  4  6  1  0
  6  7  1  6
  7  8  1  0
  8  9  1  0
  9 10  1  6
  9 11  1  0
 11 12  1  1
 12 13  2  0
 12 14  1  0
 14 15  2  0
 15 16  1  0
 16 17  1  6
 17 18  1  0
 18 19  1  6
 18 20  1  0
 20 21  1  0
 21 22  1  0
 22 23  1  1
 22 24  1  0
 24 25  1  0
 25 26  1  0
 26 27  1  1
 18 28  1  0
 28 29  1  0
 28 30  2  0
  6 31  1  0
 31 32  1  0
 31 33  1  0
  1 34  1  1
 34 35  1  0
 35 36  2  0
 35 37  1  0
 37 38  1  0
 38 39  1  0
 39 40  1  0
 39 41  2  0
 31  1  1  0
 11  4  1  0
 26 15  1  0
 26  9  1  0
 22 16  1  0
M  END
$$$$
