
     RDKit          3D

 62 70  0  0  0  0  0  0  0  0999 V2000
  149.4398  172.4866  134.3892 O   0  0  0  0  0  0  0  0  0  0  0  0
  148.9389  171.7643  133.2911 C   0  0  2  0  0  0  0  0  0  0  0  0
  147.4604  171.8559  133.2726 C   0  0  1  0  0  0  0  0  0  0  0  0
  146.9183  172.6525  134.2811 O   0  0  0  0  0  0  0  0  0  0  0  0
  146.9558  172.2062  131.9065 C   0  0  1  0  0  0  0  0  0  0  0  0
  147.5276  173.4142  131.2695 C   0  0  0  0  0  0  0  0  0  0  0  0
  147.1613  173.5534  129.8291 C   0  0  0  0  0  0  0  0  0  0  0  0
  148.1615  173.3919  128.8602 C   0  0  0  0  0  0  0  0  0  0  0  0
  147.8849  173.5227  127.5338 C   0  0  0  0  0  0  0  0  0  0  0  0
  146.6248  173.8180  127.0768 C   0  0  0  0  0  0  0  0  0  0  0  0
  145.6492  173.9753  128.0336 C   0  0  0  0  0  0  0  0  0  0  0  0
  145.9045  173.8467  129.3953 C   0  0  0  0  0  0  0  0  0  0  0  0
  147.0704  171.0232  131.0880 N   0  0  0  0  0  0  0  0  0  0  0  0
  146.3287  171.0435  129.8594 C   0  0  0  0  0  0  0  0  0  0  0  0
  144.8613  171.0356  130.0293 C   0  0  0  0  0  0  0  0  0  0  0  0
  144.1245  169.9869  130.5106 C   0  0  0  0  0  0  0  0  0  0  0  0
  142.7519  170.0874  130.5619 C   0  0  0  0  0  0  0  0  0  0  0  0
  142.0938  171.2163  130.1396 C   0  0  0  0  0  0  0  0  0  0  0  0
  142.8207  172.2955  129.6451 C   0  0  0  0  0  0  0  0  0  0  0  0
  144.1845  172.1830  129.6020 C   0  0  0  0  0  0  0  0  0  0  0  0
  142.0844  173.4444  129.1599 C   0  0  0  0  0  0  0  0  0  0  0  0
  141.2486  174.0445  129.8908 O   0  0  0  0  0  0  0  0  0  0  0  0
  142.2940  173.9159  127.8339 N   0  0  0  0  0  0  0  0  0  0  0  0
  141.3830  173.5328  126.8117 C   0  0  0  0  0  0  0  0  0  0  0  0
  140.6906  174.4063  126.0212 N   0  0  0  0  0  0  0  0  0  0  0  0
  139.9268  173.7391  125.1579 C   0  0  0  0  0  0  0  0  0  0  0  0
  140.1384  172.4048  125.4049 C   0  0  0  0  0  0  0  0  0  0  0  0
  141.0355  172.3184  126.4241 N   0  0  0  0  0  0  0  0  0  0  0  0
  139.4550  171.4702  124.6316 C   0  0  0  0  0  0  0  0  0  0  0  0
  138.5791  171.8433  123.6343 C   0  0  0  0  0  0  0  0  0  0  0  0
  138.3825  173.1963  123.4062 C   0  0  0  0  0  0  0  0  0  0  0  0
  139.0529  174.1292  124.1640 C   0  0  0  0  0  0  0  0  0  0  0  0
  147.7915  169.7958  131.3326 C   0  0  0  0  0  0  0  0  0  0  0  0
  147.3544  168.7688  130.7532 O   0  0  0  0  0  0  0  0  0  0  0  0
  148.9447  169.6375  132.1602 N   0  0  0  0  0  0  0  0  0  0  0  0
  149.7467  168.4837  131.7203 C   0  0  0  0  0  0  0  0  0  0  0  0
  151.1879  168.6601  131.9877 C   0  0  0  0  0  0  0  0  0  0  0  0
  151.9263  167.5896  132.4887 C   0  0  0  0  0  0  0  0  0  0  0  0
  153.2780  167.7150  132.7684 C   0  0  0  0  0  0  0  0  0  0  0  0
  153.8773  168.9432  132.5319 C   0  0  0  0  0  0  0  0  0  0  0  0
  153.1693  170.0319  132.0320 C   0  0  0  0  0  0  0  0  0  0  0  0
  151.8094  169.8656  131.7641 C   0  0  0  0  0  0  0  0  0  0  0  0
  154.0858  166.6413  133.2973 C   0  0  0  0  0  0  0  0  0  0  0  0
  154.3085  166.5892  134.5416 O   0  0  0  0  0  0  0  0  0  0  0  0
  154.6725  165.6020  132.5237 N   0  0  0  0  0  0  0  0  0  0  0  0
  154.2285  164.2499  132.5152 C   0  0  0  0  0  0  0  0  0  0  0  0
  153.6437  163.6415  133.5911 N   0  0  0  0  0  0  0  0  0  0  0  0
  153.3287  162.3754  133.2889 C   0  0  0  0  0  0  0  0  0  0  0  0
  153.7224  162.1617  131.9773 C   0  0  0  0  0  0  0  0  0  0  0  0
  154.2634  163.3342  131.5564 N   0  0  0  0  0  0  0  0  0  0  0  0
  153.5202  160.9350  131.4076 C   0  0  0  0  0  0  0  0  0  0  0  0
  152.9381  159.8998  132.0896 C   0  0  0  0  0  0  0  0  0  0  0  0
  152.5541  160.1411  133.3984 C   0  0  0  0  0  0  0  0  0  0  0  0
  152.7350  161.3434  134.0054 C   0  0  0  0  0  0  0  0  0  0  0  0
  149.4601  170.3526  133.3002 C   0  0  2  0  0  0  0  0  0  0  0  0
  149.1728  169.5959  134.5572 C   0  0  0  0  0  0  0  0  0  0  0  0
  148.3005  168.4283  134.4255 C   0  0  0  0  0  0  0  0  0  0  0  0
  148.2726  167.4408  135.4211 C   0  0  0  0  0  0  0  0  0  0  0  0
  147.4799  166.3324  135.3071 C   0  0  0  0  0  0  0  0  0  0  0  0
  146.6721  166.1309  134.2131 C   0  0  0  0  0  0  0  0  0  0  0  0
  146.6947  167.0995  133.2286 C   0  0  0  0  0  0  0  0  0  0  0  0
  147.4879  168.2135  133.3375 C   0  0  0  0  0  0  0  0  0  0  0  0
  2  1  1  1
  2  3  1  0
  3  4  1  1
  3  5  1  0
  5  6  1  6
  6  7  1  0
  7  8  2  0
  8  9  1  0
  9 10  2  0
 10 11  1  0
 11 12  2  0
  5 13  1  0
 13 14  1  0
 14 15  1  0
 15 16  2  0
 16 17  1  0
 17 18  2  0
 18 19  1  0
 19 20  2  0
 19 21  1  0
 21 22  2  0
 21 23  1  0
 23 24  1  0
 24 25  2  0
 25 26  1  0
 26 27  2  0
 27 28  1  0
 27 29  1  0
 29 30  2  0
 30 31  1  0
 31 32  2  0
 13 33  1  0
 33 34  2  0
 33 35  1  0
 35 36  1  0
 36 37  1  0
 37 38  2  0
 38 39  1  0
 39 40  2  0
 40 41  1  0
 41 42  2  0
 39 43  1  0
 43 44  2  0
 43 45  1  0
 45 46  1  0
 46 47  2  0
 47 48  1  0
 48 49  2  0
 49 50  1  0
 49 51  1  0
 51 52  2  0
 52 53  1  0
 53 54  2  0
 35 55  1  0
 55 56  1  1
 56 57  1  0
 57 58  2  0
 58 59  1  0
 59 60  2  0
 60 61  1  0
 61 62  2  0
 55  2  1  0
 62 57  1  0
 12  7  1  0
 20 15  1  0
 28 24  1  0
 42 37  1  0
 50 46  1  0
 32 26  1  0
 54 48  1  0
M  END
$$$$
