
     RDKit          3D

 62 70  0  0  0  0  0  0  0  0999 V2000
  188.5590  161.3651  136.1979 O   0  0  0  0  0  0  0  0  0  0  0  0
  187.3268  161.1540  136.8427 C   0  0  2  0  0  0  0  0  0  0  0  0
  186.2413  161.7757  136.0490 C   0  0  1  0  0  0  0  0  0  0  0  0
  186.6618  162.3643  134.8565 O   0  0  0  0  0  0  0  0  0  0  0  0
  185.0918  160.8321  135.8698 C   0  0  1  0  0  0  0  0  0  0  0  0
  185.4013  159.4963  135.3112 C   0  0  0  0  0  0  0  0  0  0  0  0
  184.5489  158.4076  135.8739 C   0  0  0  0  0  0  0  0  0  0  0  0
  184.6773  158.0842  137.2318 C   0  0  0  0  0  0  0  0  0  0  0  0
  183.9350  157.0903  137.7923 C   0  0  0  0  0  0  0  0  0  0  0  0
  183.0302  156.3569  137.0660 C   0  0  0  0  0  0  0  0  0  0  0  0
  182.9105  156.6802  135.7343 C   0  0  0  0  0  0  0  0  0  0  0  0
  183.6562  157.6912  135.1365 C   0  0  0  0  0  0  0  0  0  0  0  0
  184.3824  160.7733  137.1250 N   0  0  0  0  0  0  0  0  0  0  0  0
  183.0656  160.2052  137.0685 C   0  0  0  0  0  0  0  0  0  0  0  0
  182.7098  159.6116  135.7634 C   0  0  0  0  0  0  0  0  0  0  0  0
  183.5200  159.5783  134.6604 C   0  0  0  0  0  0  0  0  0  0  0  0
  183.0430  159.0475  133.4824 C   0  0  0  0  0  0  0  0  0  0  0  0
  181.7680  158.5480  133.3790 C   0  0  0  0  0  0  0  0  0  0  0  0
  180.9248  158.5718  134.4861 C   0  0  0  0  0  0  0  0  0  0  0  0
  181.4126  159.1000  135.6513 C   0  0  0  0  0  0  0  0  0  0  0  0
  179.5710  158.0853  134.3187 C   0  0  0  0  0  0  0  0  0  0  0  0
  178.9896  157.4360  135.2317 O   0  0  0  0  0  0  0  0  0  0  0  0
  178.8705  158.3333  133.1053 N   0  0  0  0  0  0  0  0  0  0  0  0
  177.5393  157.8537  132.9652 C   0  0  0  0  0  0  0  0  0  0  0  0
  176.9682  157.4829  131.7804 N   0  0  0  0  0  0  0  0  0  0  0  0
  175.7168  157.0735  131.9812 C   0  0  0  0  0  0  0  0  0  0  0  0
  175.4846  157.1864  133.3302 C   0  0  0  0  0  0  0  0  0  0  0  0
  176.6231  157.6676  133.8988 N   0  0  0  0  0  0  0  0  0  0  0  0
  174.2351  156.8177  133.8216 C   0  0  0  0  0  0  0  0  0  0  0  0
  173.2332  156.3474  132.9993 C   0  0  0  0  0  0  0  0  0  0  0  0
  173.4931  156.2443  131.6418 C   0  0  0  0  0  0  0  0  0  0  0  0
  174.7246  156.6053  131.1446 C   0  0  0  0  0  0  0  0  0  0  0  0
  184.7798  161.2359  138.4344 C   0  0  0  0  0  0  0  0  0  0  0  0
  183.8487  161.5281  139.2276 O   0  0  0  0  0  0  0  0  0  0  0  0
  186.1170  161.3900  138.9122 N   0  0  0  0  0  0  0  0  0  0  0  0
  186.1617  161.2772  140.3796 C   0  0  0  0  0  0  0  0  0  0  0  0
  184.9327  161.7805  141.0245 C   0  0  0  0  0  0  0  0  0  0  0  0
  184.9823  162.9619  141.7619 C   0  0  0  0  0  0  0  0  0  0  0  0
  183.8565  163.4628  142.3966 C   0  0  0  0  0  0  0  0  0  0  0  0
  182.6728  162.7507  142.2735 C   0  0  0  0  0  0  0  0  0  0  0  0
  182.5888  161.5684  141.5446 C   0  0  0  0  0  0  0  0  0  0  0  0
  183.7451  161.0962  140.9212 C   0  0  0  0  0  0  0  0  0  0  0  0
  183.8561  164.6758  143.1801 C   0  0  0  0  0  0  0  0  0  0  0  0
  182.8470  165.4377  143.1411 O   0  0  0  0  0  0  0  0  0  0  0  0
  184.9197  165.1067  144.0204 N   0  0  0  0  0  0  0  0  0  0  0  0
  184.7561  165.5960  145.3468 C   0  0  0  0  0  0  0  0  0  0  0  0
  184.0185  166.7050  145.6557 N   0  0  0  0  0  0  0  0  0  0  0  0
  184.0424  166.9202  146.9774 C   0  0  0  0  0  0  0  0  0  0  0  0
  184.8193  165.9183  147.5373 C   0  0  0  0  0  0  0  0  0  0  0  0
  185.2276  165.1419  146.5004 N   0  0  0  0  0  0  0  0  0  0  0  0
  185.0168  165.8996  148.8903 C   0  0  0  0  0  0  0  0  0  0  0  0
  184.4713  166.8415  149.7214 C   0  0  0  0  0  0  0  0  0  0  0  0
  183.6991  167.8310  149.1353 C   0  0  0  0  0  0  0  0  0  0  0  0
  183.4757  167.8893  147.7962 C   0  0  0  0  0  0  0  0  0  0  0  0
  187.3846  161.6286  138.2695 C   0  0  2  0  0  0  0  0  0  0  0  0
  187.7823  163.0610  138.4286 C   0  0  0  0  0  0  0  0  0  0  0  0
  189.1131  163.3057  138.9863 C   0  0  0  0  0  0  0  0  0  0  0  0
  189.5510  164.6131  139.2437 C   0  0  0  0  0  0  0  0  0  0  0  0
  190.7982  164.8638  139.7452 C   0  0  0  0  0  0  0  0  0  0  0  0
  191.6835  163.8492  140.0218 C   0  0  0  0  0  0  0  0  0  0  0  0
  191.2587  162.5590  139.7707 C   0  0  0  0  0  0  0  0  0  0  0  0
  190.0087  162.3013  139.2676 C   0  0  0  0  0  0  0  0  0  0  0  0
  2  1  1  6
  2  3  1  0
  3  4  1  6
  3  5  1  0
  5  6  1  1
  6  7  1  0
  7  8  2  0
  8  9  1  0
  9 10  2  0
 10 11  1  0
 11 12  2  0
  5 13  1  0
 13 14  1  0
 14 15  1  0
 15 16  2  0
 16 17  1  0
 17 18  2  0
 18 19  1  0
 19 20  2  0
 19 21  1  0
 21 22  2  0
 21 23  1  0
 23 24  1  0
 24 25  2  0
 25 26  1  0
 26 27  2  0
 27 28  1  0
 27 29  1  0
 29 30  2  0
 30 31  1  0
 31 32  2  0
 13 33  1  0
 33 34  2  0
 33 35  1  0
 35 36  1  0
 36 37  1  0
 37 38  2  0
 38 39  1  0
 39 40  2  0
 40 41  1  0
 41 42  2  0
 39 43  1  0
 43 44  2  0
 43 45  1  0
 45 46  1  0
 46 47  2  0
 47 48  1  0
 48 49  2  0
 49 50  1  0
 49 51  1  0
 51 52  2  0
 52 53  1  0
 53 54  2  0
 35 55  1  0
 55 56  1  6
 56 57  1  0
 57 58  2  0
 58 59  1  0
 59 60  2  0
 60 61  1  0
 61 62  2  0
 55  2  1  0
 62 57  1  0
 12  7  1  0
 20 15  1  0
 28 24  1  0
 42 37  1  0
 50 46  1  0
 32 26  1  0
 54 48  1  0
M  END
$$$$
