
     RDKit          3D

 62 70  0  0  0  0  0  0  0  0999 V2000
  205.0367  131.3010  136.0816 O   0  0  0  0  0  0  0  0  0  0  0  0
  205.2764  132.2180  135.0424 C   0  0  2  0  0  0  0  0  0  0  0  0
  203.9861  132.6434  134.4517 C   0  0  1  0  0  0  0  0  0  0  0  0
  202.8604  132.0997  135.0702 O   0  0  0  0  0  0  0  0  0  0  0  0
  203.9204  134.1330  134.3077 C   0  0  1  0  0  0  0  0  0  0  0  0
  204.1902  134.9368  135.5214 C   0  0  0  0  0  0  0  0  0  0  0  0
  203.0108  135.7280  135.9814 C   0  0  0  0  0  0  0  0  0  0  0  0
  202.7409  135.7993  137.3552 C   0  0  0  0  0  0  0  0  0  0  0  0
  201.6702  136.4948  137.8273 C   0  0  0  0  0  0  0  0  0  0  0  0
  200.8043  137.1566  136.9930 C   0  0  0  0  0  0  0  0  0  0  0  0
  201.0759  137.0814  135.6466 C   0  0  0  0  0  0  0  0  0  0  0  0
  202.1631  136.3782  135.1375 C   0  0  0  0  0  0  0  0  0  0  0  0
  204.7559  134.4952  133.1882 N   0  0  0  0  0  0  0  0  0  0  0  0
  204.5607  135.8194  132.6701 C   0  0  0  0  0  0  0  0  0  0  0  0
  203.5932  135.9054  131.5571 C   0  0  0  0  0  0  0  0  0  0  0  0
  203.3105  134.8993  130.6728 C   0  0  0  0  0  0  0  0  0  0  0  0
  202.4297  135.1301  129.6395 C   0  0  0  0  0  0  0  0  0  0  0  0
  201.8225  136.3496  129.4663 C   0  0  0  0  0  0  0  0  0  0  0  0
  202.0947  137.3887  130.3516 C   0  0  0  0  0  0  0  0  0  0  0  0
  202.9703  137.1448  131.3755 C   0  0  0  0  0  0  0  0  0  0  0  0
  201.4755  138.6737  130.1007 C   0  0  0  0  0  0  0  0  0  0  0  0
  200.4486  138.7764  129.3740 O   0  0  0  0  0  0  0  0  0  0  0  0
  202.0260  139.8533  130.6750 N   0  0  0  0  0  0  0  0  0  0  0  0
  201.4471  141.1124  130.3567 C   0  0  0  0  0  0  0  0  0  0  0  0
  202.0168  142.3223  130.6374 N   0  0  0  0  0  0  0  0  0  0  0  0
  201.2333  143.3102  130.2083 C   0  0  0  0  0  0  0  0  0  0  0  0
  200.1352  142.7136  129.6387 C   0  0  0  0  0  0  0  0  0  0  0  0
  200.3020  141.3679  129.7489 N   0  0  0  0  0  0  0  0  0  0  0  0
  199.1424  143.5277  129.0999 C   0  0  0  0  0  0  0  0  0  0  0  0
  199.2296  144.9035  129.1227 C   0  0  0  0  0  0  0  0  0  0  0  0
  200.3476  145.4804  129.7046 C   0  0  0  0  0  0  0  0  0  0  0  0
  201.3356  144.6858  130.2399 C   0  0  0  0  0  0  0  0  0  0  0  0
  205.7401  133.7126  132.4774 C   0  0  0  0  0  0  0  0  0  0  0  0
  205.9594  134.0449  131.2846 O   0  0  0  0  0  0  0  0  0  0  0  0
  206.4838  132.6084  132.9949 N   0  0  0  0  0  0  0  0  0  0  0  0
  207.7581  132.4552  132.2734 C   0  0  0  0  0  0  0  0  0  0  0  0
  208.9316  132.6258  133.1530 C   0  0  0  0  0  0  0  0  0  0  0  0
  210.2107  132.4550  132.6270 C   0  0  0  0  0  0  0  0  0  0  0  0
  211.3396  132.5905  133.4196 C   0  0  0  0  0  0  0  0  0  0  0  0
  211.1574  132.9047  134.7581 C   0  0  0  0  0  0  0  0  0  0  0  0
  209.8946  133.0822  135.3149 C   0  0  0  0  0  0  0  0  0  0  0  0
  208.7825  132.9361  134.4838 C   0  0  0  0  0  0  0  0  0  0  0  0
  212.6856  132.4145  132.9272 C   0  0  0  0  0  0  0  0  0  0  0  0
  213.3568  133.4303  132.5834 O   0  0  0  0  0  0  0  0  0  0  0  0
  213.3489  131.1640  132.7895 N   0  0  0  0  0  0  0  0  0  0  0  0
  212.7750  129.9030  133.1155 C   0  0  0  0  0  0  0  0  0  0  0  0
  213.5036  128.8361  133.5631 N   0  0  0  0  0  0  0  0  0  0  0  0
  212.6973  127.7911  133.7904 C   0  0  0  0  0  0  0  0  0  0  0  0
  211.4092  128.1978  133.4801 C   0  0  0  0  0  0  0  0  0  0  0  0
  211.5154  129.4897  133.0748 N   0  0  0  0  0  0  0  0  0  0  0  0
  210.3749  127.3140  133.6189 C   0  0  0  0  0  0  0  0  0  0  0  0
  210.5646  126.0304  134.0571 C   0  0  0  0  0  0  0  0  0  0  0  0
  211.8618  125.6507  134.3604 C   0  0  0  0  0  0  0  0  0  0  0  0
  212.9199  126.4945  134.2378 C   0  0  0  0  0  0  0  0  0  0  0  0
  206.2439  131.6470  134.0413 C   0  0  2  0  0  0  0  0  0  0  0  0
  205.8241  130.3381  133.4532 C   0  0  0  0  0  0  0  0  0  0  0  0
  206.7585  129.7218  132.5105 C   0  0  0  0  0  0  0  0  0  0  0  0
  206.7702  130.1053  131.1615 C   0  0  0  0  0  0  0  0  0  0  0  0
  207.6213  129.5271  130.2609 C   0  0  0  0  0  0  0  0  0  0  0  0
  208.5065  128.5429  130.6319 C   0  0  0  0  0  0  0  0  0  0  0  0
  208.5004  128.1602  131.9591 C   0  0  0  0  0  0  0  0  0  0  0  0
  207.6488  128.7368  132.8671 C   0  0  0  0  0  0  0  0  0  0  0  0
  2  1  1  1
  2  3  1  0
  3  4  1  1
  3  5  1  0
  5  6  1  1
  6  7  1  0
  7  8  2  0
  8  9  1  0
  9 10  2  0
 10 11  1  0
 11 12  2  0
  5 13  1  0
 13 14  1  0
 14 15  1  0
 15 16  2  0
 16 17  1  0
 17 18  2  0
 18 19  1  0
 19 20  2  0
 19 21  1  0
 21 22  2  0
 21 23  1  0
 23 24  1  0
 24 25  2  0
 25 26  1  0
 26 27  2  0
 27 28  1  0
 27 29  1  0
 29 30  2  0
 30 31  1  0
 31 32  2  0
 13 33  1  0
 33 34  2  0
 33 35  1  0
 35 36  1  0
 36 37  1  0
 37 38  2  0
 38 39  1  0
 39 40  2  0
 40 41  1  0
 41 42  2  0
 39 43  1  0
 43 44  2  0
 43 45  1  0
 45 46  1  0
 46 47  2  0
 47 48  1  0
 48 49  2  0
 49 50  1  0
 49 51  1  0
 51 52  2  0
 52 53  1  0
 53 54  2  0
 35 55  1  0
 55 56  1  6
 56 57  1  0
 57 58  2  0
 58 59  1  0
 59 60  2  0
 60 61  1  0
 61 62  2  0
 55  2  1  0
 62 57  1  0
 12  7  1  0
 20 15  1  0
 28 24  1  0
 42 37  1  0
 50 46  1  0
 32 26  1  0
 54 48  1  0
M  END
$$$$
