
     RDKit          3D

 62 70  0  0  0  0  0  0  0  0999 V2000
  119.7988  162.1352  144.6755 O   0  0  0  0  0  0  0  0  0  0  0  0
  119.1673  163.3344  144.2992 C   0  0  2  0  0  0  0  0  0  0  0  0
  119.8902  163.9349  143.1540 C   0  0  1  0  0  0  0  0  0  0  0  0
  120.9650  163.1778  142.6881 O   0  0  0  0  0  0  0  0  0  0  0  0
  118.9422  164.3461  142.0696 C   0  0  1  0  0  0  0  0  0  0  0  0
  118.0069  163.3134  141.5689 C   0  0  0  0  0  0  0  0  0  0  0  0
  116.7492  163.8803  140.9989 C   0  0  0  0  0  0  0  0  0  0  0  0
  116.6009  163.9263  139.6056 C   0  0  0  0  0  0  0  0  0  0  0  0
  115.4807  164.4466  139.0334 C   0  0  0  0  0  0  0  0  0  0  0  0
  114.4460  164.9505  139.7811 C   0  0  0  0  0  0  0  0  0  0  0  0
  114.5993  164.9021  141.1473 C   0  0  0  0  0  0  0  0  0  0  0  0
  115.7332  164.3756  141.7579 C   0  0  0  0  0  0  0  0  0  0  0  0
  118.2782  165.5491  142.5106 N   0  0  0  0  0  0  0  0  0  0  0  0
  117.5952  166.2917  141.4898 C   0  0  0  0  0  0  0  0  0  0  0  0
  118.4795  167.0943  140.6204 C   0  0  0  0  0  0  0  0  0  0  0  0
  118.9075  166.7299  139.3721 C   0  0  0  0  0  0  0  0  0  0  0  0
  119.7825  167.5448  138.6887 C   0  0  0  0  0  0  0  0  0  0  0  0
  120.2442  168.7211  139.2263 C   0  0  0  0  0  0  0  0  0  0  0  0
  119.8245  169.1127  140.4944 C   0  0  0  0  0  0  0  0  0  0  0  0
  118.9529  168.2944  141.1615 C   0  0  0  0  0  0  0  0  0  0  0  0
  120.3780  170.3322  141.0458 C   0  0  0  0  0  0  0  0  0  0  0  0
  120.3745  171.4100  140.3889 O   0  0  0  0  0  0  0  0  0  0  0  0
  120.9435  170.3305  142.3514 N   0  0  0  0  0  0  0  0  0  0  0  0
  121.4609  171.5437  142.8824 C   0  0  0  0  0  0  0  0  0  0  0  0
  122.0940  171.6561  144.0882 N   0  0  0  0  0  0  0  0  0  0  0  0
  122.4660  172.9179  144.2965 C   0  0  0  0  0  0  0  0  0  0  0  0
  122.0593  173.6283  143.1937 C   0  0  0  0  0  0  0  0  0  0  0  0
  121.4477  172.7531  142.3504 N   0  0  0  0  0  0  0  0  0  0  0  0
  122.3271  174.9939  143.1480 C   0  0  0  0  0  0  0  0  0  0  0  0
  122.9825  175.6472  144.1701 C   0  0  0  0  0  0  0  0  0  0  0  0
  123.3812  174.9074  145.2723 C   0  0  0  0  0  0  0  0  0  0  0  0
  123.1224  173.5568  145.3282 C   0  0  0  0  0  0  0  0  0  0  0  0
  118.2253  166.1476  143.8241 C   0  0  0  0  0  0  0  0  0  0  0  0
  118.0324  167.3898  143.8622 O   0  0  0  0  0  0  0  0  0  0  0  0
  118.3673  165.4703  145.0736 N   0  0  0  0  0  0  0  0  0  0  0  0
  117.6792  166.2076  146.1465 C   0  0  0  0  0  0  0  0  0  0  0  0
  116.4596  165.5200  146.6148 C   0  0  0  0  0  0  0  0  0  0  0  0
  115.5497  166.2101  147.4134 C   0  0  0  0  0  0  0  0  0  0  0  0
  114.3995  165.5993  147.8878 C   0  0  0  0  0  0  0  0  0  0  0  0
  114.1790  164.2748  147.5406 C   0  0  0  0  0  0  0  0  0  0  0  0
  115.0668  163.5572  146.7449 C   0  0  0  0  0  0  0  0  0  0  0  0
  116.2143  164.2076  146.2879 C   0  0  0  0  0  0  0  0  0  0  0  0
  113.4303  166.2656  148.7257 C   0  0  0  0  0  0  0  0  0  0  0  0
  112.1973  166.1152  148.4861 O   0  0  0  0  0  0  0  0  0  0  0  0
  113.7439  167.1018  149.8326 N   0  0  0  0  0  0  0  0  0  0  0  0
  113.9892  168.5011  149.7462 C   0  0  0  0  0  0  0  0  0  0  0  0
  114.3463  169.2717  150.8178 N   0  0  0  0  0  0  0  0  0  0  0  0
  114.5127  170.5441  150.4346 C   0  0  0  0  0  0  0  0  0  0  0  0
  114.2552  170.5947  149.0737 C   0  0  0  0  0  0  0  0  0  0  0  0
  113.9415  169.3249  148.7078 N   0  0  0  0  0  0  0  0  0  0  0  0
  114.3489  171.7906  148.4172 C   0  0  0  0  0  0  0  0  0  0  0  0
  114.6907  172.9513  149.0587 C   0  0  0  0  0  0  0  0  0  0  0  0
  114.9429  172.8719  150.4184 C   0  0  0  0  0  0  0  0  0  0  0  0
  114.8621  171.7060  151.1118 C   0  0  0  0  0  0  0  0  0  0  0  0
  119.0280  164.2560  145.4805 C   0  0  2  0  0  0  0  0  0  0  0  0
  120.3154  164.5752  146.1704 C   0  0  0  0  0  0  0  0  0  0  0  0
  120.2078  165.2706  147.4536 C   0  0  0  0  0  0  0  0  0  0  0  0
  119.9285  164.5604  148.6304 C   0  0  0  0  0  0  0  0  0  0  0  0
  119.8037  165.1942  149.8357 C   0  0  0  0  0  0  0  0  0  0  0  0
  119.9456  166.5564  149.9541 C   0  0  0  0  0  0  0  0  0  0  0  0
  120.2207  167.2621  148.7990 C   0  0  0  0  0  0  0  0  0  0  0  0
  120.3469  166.6318  147.5871 C   0  0  0  0  0  0  0  0  0  0  0  0
  2  1  1  1
  2  3  1  0
  3  4  1  6
  3  5  1  0
  5  6  1  1
  6  7  1  0
  7  8  2  0
  8  9  1  0
  9 10  2  0
 10 11  1  0
 11 12  2  0
  5 13  1  0
 13 14  1  0
 14 15  1  0
 15 16  2  0
 16 17  1  0
 17 18  2  0
 18 19  1  0
 19 20  2  0
 19 21  1  0
 21 22  2  0
 21 23  1  0
 23 24  1  0
 24 25  2  0
 25 26  1  0
 26 27  2  0
 27 28  1  0
 27 29  1  0
 29 30  2  0
 30 31  1  0
 31 32  2  0
 13 33  1  0
 33 34  2  0
 33 35  1  0
 35 36  1  0
 36 37  1  0
 37 38  2  0
 38 39  1  0
 39 40  2  0
 40 41  1  0
 41 42  2  0
 39 43  1  0
 43 44  2  0
 43 45  1  0
 45 46  1  0
 46 47  2  0
 47 48  1  0
 48 49  2  0
 49 50  1  0
 49 51  1  0
 51 52  2  0
 52 53  1  0
 53 54  2  0
 35 55  1  0
 55 56  1  6
 56 57  1  0
 57 58  2  0
 58 59  1  0
 59 60  2  0
 60 61  1  0
 61 62  2  0
 55  2  1  0
 62 57  1  0
 12  7  1  0
 20 15  1  0
 28 24  1  0
 42 37  1  0
 50 46  1  0
 32 26  1  0
 54 48  1  0
M  END
$$$$
