
     RDKit          3D

 62 70  0  0  0  0  0  0  0  0999 V2000
  118.3988  162.5854  140.5312 O   0  0  0  0  0  0  0  0  0  0  0  0
  118.4102  163.6771  141.4181 C   0  0  2  0  0  0  0  0  0  0  0  0
  118.4101  163.1796  142.8136 C   0  0  1  0  0  0  0  0  0  0  0  0
  118.4505  161.7904  142.9317 O   0  0  0  0  0  0  0  0  0  0  0  0
  119.4513  163.8738  143.6369 C   0  0  1  0  0  0  0  0  0  0  0  0
  120.8367  163.8625  143.1149 C   0  0  0  0  0  0  0  0  0  0  0  0
  121.8508  164.3018  144.1183 C   0  0  0  0  0  0  0  0  0  0  0  0
  123.2018  164.0104  143.8838 C   0  0  0  0  0  0  0  0  0  0  0  0
  124.1656  164.3751  144.7732 C   0  0  0  0  0  0  0  0  0  0  0  0
  123.8707  165.0403  145.9370 C   0  0  0  0  0  0  0  0  0  0  0  0
  122.5429  165.3222  146.1599 C   0  0  0  0  0  0  0  0  0  0  0  0
  121.5381  164.9614  145.2676 C   0  0  0  0  0  0  0  0  0  0  0  0
  118.9616  165.2010  143.9217 N   0  0  0  0  0  0  0  0  0  0  0  0
  119.6405  165.9011  144.9748 C   0  0  0  0  0  0  0  0  0  0  0  0
  119.1217  165.6225  146.3296 C   0  0  0  0  0  0  0  0  0  0  0  0
  118.5069  164.4634  146.7202 C   0  0  0  0  0  0  0  0  0  0  0  0
  118.0129  164.3543  148.0013 C   0  0  0  0  0  0  0  0  0  0  0  0
  118.1174  165.3821  148.9059 C   0  0  0  0  0  0  0  0  0  0  0  0
  118.7372  166.5711  148.5321 C   0  0  0  0  0  0  0  0  0  0  0  0
  119.2258  166.6650  147.2566 C   0  0  0  0  0  0  0  0  0  0  0  0
  118.7773  167.6487  149.4990 C   0  0  0  0  0  0  0  0  0  0  0  0
  118.8576  167.4165  150.7370 O   0  0  0  0  0  0  0  0  0  0  0  0
  118.7227  169.0011  149.0603 N   0  0  0  0  0  0  0  0  0  0  0  0
  118.3544  170.0143  149.9873 C   0  0  0  0  0  0  0  0  0  0  0  0
  117.7500  171.1926  149.6503 N   0  0  0  0  0  0  0  0  0  0  0  0
  117.5286  171.9243  150.7409 C   0  0  0  0  0  0  0  0  0  0  0  0
  118.0045  171.1924  151.8011 C   0  0  0  0  0  0  0  0  0  0  0  0
  118.5026  170.0297  151.3001 N   0  0  0  0  0  0  0  0  0  0  0  0
  117.8963  171.7303  153.0808 C   0  0  0  0  0  0  0  0  0  0  0  0
  117.3306  172.9664  153.3113 C   0  0  0  0  0  0  0  0  0  0  0  0
  116.8592  173.6852  152.2240 C   0  0  0  0  0  0  0  0  0  0  0  0
  116.9603  173.1633  150.9545 C   0  0  0  0  0  0  0  0  0  0  0  0
  117.8603  165.9266  143.3325 C   0  0  0  0  0  0  0  0  0  0  0  0
  117.3288  166.8111  144.0512 O   0  0  0  0  0  0  0  0  0  0  0  0
  117.3227  165.7396  142.0225 N   0  0  0  0  0  0  0  0  0  0  0  0
  116.6792  166.9741  141.5429 C   0  0  0  0  0  0  0  0  0  0  0  0
  115.3110  167.1424  142.0716 C   0  0  0  0  0  0  0  0  0  0  0  0
  114.2311  167.1258  141.1911 C   0  0  0  0  0  0  0  0  0  0  0  0
  112.9313  167.2952  141.6419 C   0  0  0  0  0  0  0  0  0  0  0  0
  112.7366  167.4807  143.0024 C   0  0  0  0  0  0  0  0  0  0  0  0
  113.7925  167.5022  143.9085 C   0  0  0  0  0  0  0  0  0  0  0  0
  115.0867  167.3291  143.4149 C   0  0  0  0  0  0  0  0  0  0  0  0
  111.7792  167.2961  140.7715 C   0  0  0  0  0  0  0  0  0  0  0  0
  110.8308  166.4902  140.9988 O   0  0  0  0  0  0  0  0  0  0  0  0
  111.6054  168.1481  139.6458 N   0  0  0  0  0  0  0  0  0  0  0  0
  110.6574  169.2069  139.5707 C   0  0  0  0  0  0  0  0  0  0  0  0
  110.2214  169.7465  138.3924 N   0  0  0  0  0  0  0  0  0  0  0  0
  109.3327  170.7193  138.6326 C   0  0  0  0  0  0  0  0  0  0  0  0
  109.1916  170.8087  140.0085 C   0  0  0  0  0  0  0  0  0  0  0  0
  110.0201  169.8667  140.5287 N   0  0  0  0  0  0  0  0  0  0  0  0
  108.3367  171.7366  140.5362 C   0  0  0  0  0  0  0  0  0  0  0  0
  107.6077  172.5887  139.7501 C   0  0  0  0  0  0  0  0  0  0  0  0
  107.7679  172.4773  138.3787 C   0  0  0  0  0  0  0  0  0  0  0  0
  108.6054  171.5707  137.8100 C   0  0  0  0  0  0  0  0  0  0  0  0
  117.2822  164.6244  141.1107 C   0  0  2  0  0  0  0  0  0  0  0  0
  115.9259  163.9955  141.1246 C   0  0  0  0  0  0  0  0  0  0  0  0
  115.1265  164.1524  139.9088 C   0  0  0  0  0  0  0  0  0  0  0  0
  115.7335  164.5051  138.6946 C   0  0  0  0  0  0  0  0  0  0  0  0
  115.0015  164.6766  137.5524 C   0  0  0  0  0  0  0  0  0  0  0  0
  113.6367  164.5121  137.5369 C   0  0  0  0  0  0  0  0  0  0  0  0
  113.0323  164.1648  138.7294 C   0  0  0  0  0  0  0  0  0  0  0  0
  113.7615  163.9914  139.8785 C   0  0  0  0  0  0  0  0  0  0  0  0
  2  1  1  6
  2  3  1  0
  3  4  1  6
  3  5  1  0
  5  6  1  6
  6  7  1  0
  7  8  2  0
  8  9  1  0
  9 10  2  0
 10 11  1  0
 11 12  2  0
  5 13  1  0
 13 14  1  0
 14 15  1  0
 15 16  2  0
 16 17  1  0
 17 18  2  0
 18 19  1  0
 19 20  2  0
 19 21  1  0
 21 22  2  0
 21 23  1  0
 23 24  1  0
 24 25  2  0
 25 26  1  0
 26 27  2  0
 27 28  1  0
 27 29  1  0
 29 30  2  0
 30 31  1  0
 31 32  2  0
 13 33  1  0
 33 34  2  0
 33 35  1  0
 35 36  1  0
 36 37  1  0
 37 38  2  0
 38 39  1  0
 39 40  2  0
 40 41  1  0
 41 42  2  0
 39 43  1  0
 43 44  2  0
 43 45  1  0
 45 46  1  0
 46 47  2  0
 47 48  1  0
 48 49  2  0
 49 50  1  0
 49 51  1  0
 51 52  2  0
 52 53  1  0
 53 54  2  0
 35 55  1  0
 55 56  1  1
 56 57  1  0
 57 58  2  0
 58 59  1  0
 59 60  2  0
 60 61  1  0
 61 62  2  0
 55  2  1  0
 62 57  1  0
 12  7  1  0
 20 15  1  0
 28 24  1  0
 42 37  1  0
 50 46  1  0
 32 26  1  0
 54 48  1  0
M  END
$$$$
