
     RDKit          3D

 62 70  0  0  0  0  0  0  0  0999 V2000
  192.1661  163.4333  133.1891 O   0  0  0  0  0  0  0  0  0  0  0  0
  191.7611  162.8401  131.9797 C   0  0  2  0  0  0  0  0  0  0  0  0
  191.3153  163.8933  131.0381 C   0  0  1  0  0  0  0  0  0  0  0  0
  191.4418  165.1943  131.5244 O   0  0  0  0  0  0  0  0  0  0  0  0
  191.9287  163.7055  129.6844 C   0  0  1  0  0  0  0  0  0  0  0  0
  193.4037  163.5914  129.6263 C   0  0  0  0  0  0  0  0  0  0  0  0
  193.9244  163.3452  128.2492 C   0  0  0  0  0  0  0  0  0  0  0  0
  194.6312  162.1611  127.9971 C   0  0  0  0  0  0  0  0  0  0  0  0
  195.1401  161.8938  126.7632 C   0  0  0  0  0  0  0  0  0  0  0  0
  194.9918  162.7604  125.7092 C   0  0  0  0  0  0  0  0  0  0  0  0
  194.2975  163.9200  125.9648 C   0  0  0  0  0  0  0  0  0  0  0  0
  193.7667  164.2178  127.2160 C   0  0  0  0  0  0  0  0  0  0  0  0
  191.2475  162.6019  129.0516 N   0  0  0  0  0  0  0  0  0  0  0  0
  191.4420  162.4818  127.6347 C   0  0  0  0  0  0  0  0  0  0  0  0
  190.2602  161.9968  126.8928 C   0  0  0  0  0  0  0  0  0  0  0  0
  188.9696  162.4003  127.1063 C   0  0  0  0  0  0  0  0  0  0  0  0
  187.9486  161.8228  126.3845 C   0  0  0  0  0  0  0  0  0  0  0  0
  188.1874  160.8449  125.4505 C   0  0  0  0  0  0  0  0  0  0  0  0
  189.4910  160.4168  125.2163 C   0  0  0  0  0  0  0  0  0  0  0  0
  190.4964  161.0010  125.9391 C   0  0  0  0  0  0  0  0  0  0  0  0
  189.6925  159.3456  124.2627 C   0  0  0  0  0  0  0  0  0  0  0  0
  188.7951  158.4857  124.0426 O   0  0  0  0  0  0  0  0  0  0  0  0
  190.9224  159.2451  123.5544 N   0  0  0  0  0  0  0  0  0  0  0  0
  190.9707  158.4780  122.3582 C   0  0  0  0  0  0  0  0  0  0  0  0
  192.1158  157.9899  121.7944 N   0  0  0  0  0  0  0  0  0  0  0  0
  191.8288  157.3085  120.6866 C   0  0  0  0  0  0  0  0  0  0  0  0
  190.4642  157.3638  120.5410 C   0  0  0  0  0  0  0  0  0  0  0  0
  189.9742  158.0884  121.5830 N   0  0  0  0  0  0  0  0  0  0  0  0
  189.8869  156.7219  119.4486 C   0  0  0  0  0  0  0  0  0  0  0  0
  190.6399  156.0392  118.5170 C   0  0  0  0  0  0  0  0  0  0  0  0
  192.0150  155.9997  118.6865 C   0  0  0  0  0  0  0  0  0  0  0  0
  192.5968  156.6300  119.7628 C   0  0  0  0  0  0  0  0  0  0  0  0
  190.3620  161.6128  129.6209 C   0  0  0  0  0  0  0  0  0  0  0  0
  189.5304  161.0920  128.8344 O   0  0  0  0  0  0  0  0  0  0  0  0
  190.3414  161.1711  130.9791 N   0  0  0  0  0  0  0  0  0  0  0  0
  189.7956  159.8069  131.0746 C   0  0  0  0  0  0  0  0  0  0  0  0
  188.3206  159.7897  131.1372 C   0  0  0  0  0  0  0  0  0  0  0  0
  187.6553  158.5701  131.2461 C   0  0  0  0  0  0  0  0  0  0  0  0
  186.2715  158.5059  131.2928 C   0  0  0  0  0  0  0  0  0  0  0  0
  185.5653  159.6979  131.2296 C   0  0  0  0  0  0  0  0  0  0  0  0
  186.1985  160.9323  131.1210 C   0  0  0  0  0  0  0  0  0  0  0  0
  187.5935  160.9546  131.0758 C   0  0  0  0  0  0  0  0  0  0  0  0
  185.5336  157.2690  131.3952 C   0  0  0  0  0  0  0  0  0  0  0  0
  184.2716  157.3059  131.4766 O   0  0  0  0  0  0  0  0  0  0  0  0
  186.1130  155.9702  131.4122 N   0  0  0  0  0  0  0  0  0  0  0  0
  185.3737  154.7542  131.4336 C   0  0  0  0  0  0  0  0  0  0  0  0
  185.9567  153.5176  131.4551 N   0  0  0  0  0  0  0  0  0  0  0  0
  185.0153  152.5652  131.4756 C   0  0  0  0  0  0  0  0  0  0  0  0
  183.7877  153.2085  131.4676 C   0  0  0  0  0  0  0  0  0  0  0  0
  184.0652  154.5377  131.4415 N   0  0  0  0  0  0  0  0  0  0  0  0
  182.6404  152.4644  131.4806 C   0  0  0  0  0  0  0  0  0  0  0  0
  182.6578  151.0951  131.5015 C   0  0  0  0  0  0  0  0  0  0  0  0
  183.8981  150.4784  131.5094 C   0  0  0  0  0  0  0  0  0  0  0  0
  185.0638  151.1767  131.4972 C   0  0  0  0  0  0  0  0  0  0  0  0
  190.7304  161.7726  132.2296 C   0  0  2  0  0  0  0  0  0  0  0  0
  189.5221  162.2424  132.9742 C   0  0  0  0  0  0  0  0  0  0  0  0
  189.6721  162.3956  134.4218 C   0  0  0  0  0  0  0  0  0  0  0  0
  190.7800  163.0677  134.9587 C   0  0  0  0  0  0  0  0  0  0  0  0
  190.9488  163.2035  136.3088 C   0  0  0  0  0  0  0  0  0  0  0  0
  190.0428  162.6894  137.2059 C   0  0  0  0  0  0  0  0  0  0  0  0
  188.9493  162.0262  136.6841 C   0  0  0  0  0  0  0  0  0  0  0  0
  188.7746  161.8867  135.3305 C   0  0  0  0  0  0  0  0  0  0  0  0
  2  1  1  1
  2  3  1  0
  3  4  1  1
  3  5  1  0
  5  6  1  1
  6  7  1  0
  7  8  2  0
  8  9  1  0
  9 10  2  0
 10 11  1  0
 11 12  2  0
  5 13  1  0
 13 14  1  0
 14 15  1  0
 15 16  2  0
 16 17  1  0
 17 18  2  0
 18 19  1  0
 19 20  2  0
 19 21  1  0
 21 22  2  0
 21 23  1  0
 23 24  1  0
 24 25  2  0
 25 26  1  0
 26 27  2  0
 27 28  1  0
 27 29  1  0
 29 30  2  0
 30 31  1  0
 31 32  2  0
 13 33  1  0
 33 34  2  0
 33 35  1  0
 35 36  1  0
 36 37  1  0
 37 38  2  0
 38 39  1  0
 39 40  2  0
 40 41  1  0
 41 42  2  0
 39 43  1  0
 43 44  2  0
 43 45  1  0
 45 46  1  0
 46 47  2  0
 47 48  1  0
 48 49  2  0
 49 50  1  0
 49 51  1  0
 51 52  2  0
 52 53  1  0
 53 54  2  0
 35 55  1  0
 55 56  1  6
 56 57  1  0
 57 58  2  0
 58 59  1  0
 59 60  2  0
 60 61  1  0
 61 62  2  0
 55  2  1  0
 62 57  1  0
 12  7  1  0
 20 15  1  0
 28 24  1  0
 42 37  1  0
 50 46  1  0
 32 26  1  0
 54 48  1  0
M  END
$$$$
