
     RDKit          3D

 62 70  0  0  0  0  0  0  0  0999 V2000
  162.4661  159.4116  125.8242 O   0  0  0  0  0  0  0  0  0  0  0  0
  162.9457  158.4396  126.7207 C   0  0  2  0  0  0  0  0  0  0  0  0
  164.1033  158.9848  127.4672 C   0  0  1  0  0  0  0  0  0  0  0  0
  164.4146  160.3100  127.1632 O   0  0  0  0  0  0  0  0  0  0  0  0
  163.9687  158.7312  128.9374 C   0  0  1  0  0  0  0  0  0  0  0  0
  162.7152  159.1815  129.5838 C   0  0  0  0  0  0  0  0  0  0  0  0
  162.7918  159.2008  131.0745 C   0  0  0  0  0  0  0  0  0  0  0  0
  163.3047  160.3410  131.7086 C   0  0  0  0  0  0  0  0  0  0  0  0
  163.4103  160.4053  133.0643 C   0  0  0  0  0  0  0  0  0  0  0  0
  163.0256  159.3678  133.8763 C   0  0  0  0  0  0  0  0  0  0  0  0
  162.5239  158.2526  133.2464 C   0  0  0  0  0  0  0  0  0  0  0  0
  162.4047  158.1608  131.8632 C   0  0  0  0  0  0  0  0  0  0  0  0
  164.2547  157.3346  129.1620 N   0  0  0  0  0  0  0  0  0  0  0  0
  164.5188  156.9656  130.5236 C   0  0  0  0  0  0  0  0  0  0  0  0
  165.8928  156.4834  130.7723 C   0  0  0  0  0  0  0  0  0  0  0  0
  167.0204  157.2595  130.7565 C   0  0  0  0  0  0  0  0  0  0  0  0
  168.2521  156.6728  130.9449 C   0  0  0  0  0  0  0  0  0  0  0  0
  168.3852  155.3212  131.1479 C   0  0  0  0  0  0  0  0  0  0  0  0
  167.2536  154.5108  131.1669 C   0  0  0  0  0  0  0  0  0  0  0  0
  166.0355  155.1075  130.9808 C   0  0  0  0  0  0  0  0  0  0  0  0
  167.4433  153.0842  131.3293 C   0  0  0  0  0  0  0  0  0  0  0  0
  167.7534  152.3482  130.3519 O   0  0  0  0  0  0  0  0  0  0  0  0
  167.2769  152.4851  132.6091 N   0  0  0  0  0  0  0  0  0  0  0  0
  167.7853  151.1760  132.8310 C   0  0  0  0  0  0  0  0  0  0  0  0
  168.9312  150.6830  132.2730 N   0  0  0  0  0  0  0  0  0  0  0  0
  169.1398  149.4321  132.6802 C   0  0  0  0  0  0  0  0  0  0  0  0
  168.0991  149.1200  133.5203 C   0  0  0  0  0  0  0  0  0  0  0  0
  167.2906  150.2122  133.5874 N   0  0  0  0  0  0  0  0  0  0  0  0
  168.0694  147.8535  134.0978 C   0  0  0  0  0  0  0  0  0  0  0  0
  169.0461  146.9120  133.8516 C   0  0  0  0  0  0  0  0  0  0  0  0
  170.0847  147.2519  132.9989 C   0  0  0  0  0  0  0  0  0  0  0  0
  170.1249  148.5011  132.4227 C   0  0  0  0  0  0  0  0  0  0  0  0
  164.3547  156.2475  128.2162 C   0  0  0  0  0  0  0  0  0  0  0  0
  165.0772  155.2768  128.5586 O   0  0  0  0  0  0  0  0  0  0  0  0
  163.7157  156.1679  126.9413 N   0  0  0  0  0  0  0  0  0  0  0  0
  163.5270  154.7638  126.5403 C   0  0  0  0  0  0  0  0  0  0  0  0
  164.7948  154.1056  126.1671 C   0  0  0  0  0  0  0  0  0  0  0  0
  165.1286  152.8846  126.7500 C   0  0  0  0  0  0  0  0  0  0  0  0
  166.3154  152.2390  126.4406 C   0  0  0  0  0  0  0  0  0  0  0  0
  167.1642  152.8465  125.5274 C   0  0  0  0  0  0  0  0  0  0  0  0
  166.8612  154.0647  124.9270 C   0  0  0  0  0  0  0  0  0  0  0  0
  165.6568  154.6838  125.2659 C   0  0  0  0  0  0  0  0  0  0  0  0
  166.7130  150.9789  127.0228 C   0  0  0  0  0  0  0  0  0  0  0  0
  167.5935  150.2794  126.4431 O   0  0  0  0  0  0  0  0  0  0  0  0
  166.1903  150.4339  128.2281 N   0  0  0  0  0  0  0  0  0  0  0  0
  166.5686  149.1774  128.7793 C   0  0  0  0  0  0  0  0  0  0  0  0
  167.6499  148.4599  128.3484 N   0  0  0  0  0  0  0  0  0  0  0  0
  167.7592  147.3254  129.0518 C   0  0  0  0  0  0  0  0  0  0  0  0
  166.7163  147.3121  129.9644 C   0  0  0  0  0  0  0  0  0  0  0  0
  166.0241  148.4615  129.7540 N   0  0  0  0  0  0  0  0  0  0  0  0
  166.5851  146.2514  130.8177 C   0  0  0  0  0  0  0  0  0  0  0  0
  167.4528  145.1920  130.8051 C   0  0  0  0  0  0  0  0  0  0  0  0
  168.4859  145.2315  129.8832 C   0  0  0  0  0  0  0  0  0  0  0  0
  168.6555  146.2642  129.0164 C   0  0  0  0  0  0  0  0  0  0  0  0
  163.2391  157.1508  126.0014 C   0  0  2  0  0  0  0  0  0  0  0  0
  164.1983  157.2834  124.8623 C   0  0  0  0  0  0  0  0  0  0  0  0
  163.6101  157.3451  123.5237 C   0  0  0  0  0  0  0  0  0  0  0  0
  162.2179  157.3574  123.3544 C   0  0  0  0  0  0  0  0  0  0  0  0
  161.6488  157.3940  122.1116 C   0  0  0  0  0  0  0  0  0  0  0  0
  162.4113  157.4207  120.9680 C   0  0  0  0  0  0  0  0  0  0  0  0
  163.7833  157.4088  121.1273 C   0  0  0  0  0  0  0  0  0  0  0  0
  164.3599  157.3720  122.3716 C   0  0  0  0  0  0  0  0  0  0  0  0
  2  1  1  6
  2  3  1  0
  3  4  1  1
  3  5  1  0
  5  6  1  6
  6  7  1  0
  7  8  2  0
  8  9  1  0
  9 10  2  0
 10 11  1  0
 11 12  2  0
  5 13  1  0
 13 14  1  0
 14 15  1  0
 15 16  2  0
 16 17  1  0
 17 18  2  0
 18 19  1  0
 19 20  2  0
 19 21  1  0
 21 22  2  0
 21 23  1  0
 23 24  1  0
 24 25  2  0
 25 26  1  0
 26 27  2  0
 27 28  1  0
 27 29  1  0
 29 30  2  0
 30 31  1  0
 31 32  2  0
 13 33  1  0
 33 34  2  0
 33 35  1  0
 35 36  1  0
 36 37  1  0
 37 38  2  0
 38 39  1  0
 39 40  2  0
 40 41  1  0
 41 42  2  0
 39 43  1  0
 43 44  2  0
 43 45  1  0
 45 46  1  0
 46 47  2  0
 47 48  1  0
 48 49  2  0
 49 50  1  0
 49 51  1  0
 51 52  2  0
 52 53  1  0
 53 54  2  0
 35 55  1  0
 55 56  1  6
 56 57  1  0
 57 58  2  0
 58 59  1  0
 59 60  2  0
 60 61  1  0
 61 62  2  0
 55  2  1  0
 62 57  1  0
 12  7  1  0
 20 15  1  0
 28 24  1  0
 42 37  1  0
 50 46  1  0
 32 26  1  0
 54 48  1  0
M  END
$$$$
