
     RDKit          3D

 62 70  0  0  0  0  0  0  0  0999 V2000
  131.0749  145.5296  136.6532 O   0  0  0  0  0  0  0  0  0  0  0  0
  129.9911  145.7693  135.7893 C   0  0  2  0  0  0  0  0  0  0  0  0
  128.7253  145.4244  136.4774 C   0  0  1  0  0  0  0  0  0  0  0  0
  128.8817  145.0043  137.7982 O   0  0  0  0  0  0  0  0  0  0  0  0
  127.7081  146.5126  136.3193 C   0  0  1  0  0  0  0  0  0  0  0  0
  128.1208  147.8790  136.7126 C   0  0  0  0  0  0  0  0  0  0  0  0
  126.9696  148.7930  136.9728 C   0  0  0  0  0  0  0  0  0  0  0  0
  127.1673  149.9081  137.7991 C   0  0  0  0  0  0  0  0  0  0  0  0
  126.1480  150.7653  138.0808 C   0  0  0  0  0  0  0  0  0  0  0  0
  124.8837  150.5863  137.5777 C   0  0  0  0  0  0  0  0  0  0  0  0
  124.6979  149.4897  136.7683 C   0  0  0  0  0  0  0  0  0  0  0  0
  125.7219  148.5983  136.4639 C   0  0  0  0  0  0  0  0  0  0  0  0
  127.2025  146.4374  134.9697 N   0  0  0  0  0  0  0  0  0  0  0  0
  125.9856  147.1568  134.7212 C   0  0  0  0  0  0  0  0  0  0  0  0
  126.1189  148.6266  134.7842 C   0  0  0  0  0  0  0  0  0  0  0  0
  126.2028  149.3665  135.9330 C   0  0  0  0  0  0  0  0  0  0  0  0
  126.2630  150.7402  135.8539 C   0  0  0  0  0  0  0  0  0  0  0  0
  126.2394  151.3962  134.6478 C   0  0  0  0  0  0  0  0  0  0  0  0
  126.1532  150.6661  133.4658 C   0  0  0  0  0  0  0  0  0  0  0  0
  126.0965  149.3013  133.5590 C   0  0  0  0  0  0  0  0  0  0  0  0
  126.0760  151.3994  132.2193 C   0  0  0  0  0  0  0  0  0  0  0  0
  126.2010  150.8168  131.1066 O   0  0  0  0  0  0  0  0  0  0  0  0
  125.8585  152.8055  132.2329 N   0  0  0  0  0  0  0  0  0  0  0  0
  125.8113  153.5097  130.9986 C   0  0  0  0  0  0  0  0  0  0  0  0
  125.8144  154.8711  130.8807 N   0  0  0  0  0  0  0  0  0  0  0  0
  125.7701  155.2217  129.5966 C   0  0  0  0  0  0  0  0  0  0  0  0
  125.7381  154.0522  128.8771 C   0  0  0  0  0  0  0  0  0  0  0  0
  125.7642  153.0260  129.7700 N   0  0  0  0  0  0  0  0  0  0  0  0
  125.6902  154.1289  127.4877 C   0  0  0  0  0  0  0  0  0  0  0  0
  125.6735  155.3351  126.8199 C   0  0  0  0  0  0  0  0  0  0  0  0
  125.7053  156.5004  127.5696 C   0  0  0  0  0  0  0  0  0  0  0  0
  125.7532  156.4370  128.9436 C   0  0  0  0  0  0  0  0  0  0  0  0
  127.7144  145.7136  133.8294 C   0  0  0  0  0  0  0  0  0  0  0  0
  126.8752  145.4003  132.9467 O   0  0  0  0  0  0  0  0  0  0  0  0
  129.0708  145.3245  133.6082 N   0  0  0  0  0  0  0  0  0  0  0  0
  129.3419  145.1776  132.1684 C   0  0  0  0  0  0  0  0  0  0  0  0
  128.9956  143.8354  131.6604 C   0  0  0  0  0  0  0  0  0  0  0  0
  129.1193  142.7326  132.5033 C   0  0  0  0  0  0  0  0  0  0  0  0
  128.8197  141.4527  132.0638 C   0  0  0  0  0  0  0  0  0  0  0  0
  128.3892  141.3017  130.7540 C   0  0  0  0  0  0  0  0  0  0  0  0
  128.2546  142.3814  129.8866 C   0  0  0  0  0  0  0  0  0  0  0  0
  128.5673  143.6543  130.3669 C   0  0  0  0  0  0  0  0  0  0  0  0
  128.9400  140.2763  132.8925 C   0  0  0  0  0  0  0  0  0  0  0  0
  128.9214  140.4013  134.1514 O   0  0  0  0  0  0  0  0  0  0  0  0
  129.0808  138.9462  132.4089 N   0  0  0  0  0  0  0  0  0  0  0  0
  129.2845  137.8030  133.2317 C   0  0  0  0  0  0  0  0  0  0  0  0
  128.5003  136.6843  133.1758 N   0  0  0  0  0  0  0  0  0  0  0  0
  128.9312  135.7754  134.0601 C   0  0  0  0  0  0  0  0  0  0  0  0
  130.0275  136.3257  134.7054 C   0  0  0  0  0  0  0  0  0  0  0  0
  130.1972  137.5591  134.1627 N   0  0  0  0  0  0  0  0  0  0  0  0
  130.6681  135.6033  135.6738 C   0  0  0  0  0  0  0  0  0  0  0  0
  130.2645  134.3452  136.0340 C   0  0  0  0  0  0  0  0  0  0  0  0
  129.1665  133.8196  135.3728 C   0  0  0  0  0  0  0  0  0  0  0  0
  128.4992  134.5005  134.4044 C   0  0  0  0  0  0  0  0  0  0  0  0
  130.1856  145.0533  134.4801 C   0  0  2  0  0  0  0  0  0  0  0  0
  130.3942  143.5784  134.6075 C   0  0  0  0  0  0  0  0  0  0  0  0
  131.5582  143.0263  133.9133 C   0  0  0  0  0  0  0  0  0  0  0  0
  131.6195  141.6619  133.5939 C   0  0  0  0  0  0  0  0  0  0  0  0
  132.7069  141.1230  132.9639 C   0  0  0  0  0  0  0  0  0  0  0  0
  133.7923  141.8899  132.6125 C   0  0  0  0  0  0  0  0  0  0  0  0
  133.7387  143.2346  132.9240 C   0  0  0  0  0  0  0  0  0  0  0  0
  132.6505  143.7808  133.5560 C   0  0  0  0  0  0  0  0  0  0  0  0
  2  1  1  1
  2  3  1  0
  3  4  1  1
  3  5  1  0
  5  6  1  6
  6  7  1  0
  7  8  2  0
  8  9  1  0
  9 10  2  0
 10 11  1  0
 11 12  2  0
  5 13  1  0
 13 14  1  0
 14 15  1  0
 15 16  2  0
 16 17  1  0
 17 18  2  0
 18 19  1  0
 19 20  2  0
 19 21  1  0
 21 22  2  0
 21 23  1  0
 23 24  1  0
 24 25  2  0
 25 26  1  0
 26 27  2  0
 27 28  1  0
 27 29  1  0
 29 30  2  0
 30 31  1  0
 31 32  2  0
 13 33  1  0
 33 34  2  0
 33 35  1  0
 35 36  1  0
 36 37  1  0
 37 38  2  0
 38 39  1  0
 39 40  2  0
 40 41  1  0
 41 42  2  0
 39 43  1  0
 43 44  2  0
 43 45  1  0
 45 46  1  0
 46 47  2  0
 47 48  1  0
 48 49  2  0
 49 50  1  0
 49 51  1  0
 51 52  2  0
 52 53  1  0
 53 54  2  0
 35 55  1  0
 55 56  1  1
 56 57  1  0
 57 58  2  0
 58 59  1  0
 59 60  2  0
 60 61  1  0
 61 62  2  0
 55  2  1  0
 62 57  1  0
 12  7  1  0
 20 15  1  0
 28 24  1  0
 42 37  1  0
 50 46  1  0
 32 26  1  0
 54 48  1  0
M  END
$$$$
