
     RDKit          3D

 62 70  0  0  0  0  0  0  0  0999 V2000
  133.0469  166.4196  158.7906 O   0  0  0  0  0  0  0  0  0  0  0  0
  133.4054  165.0698  158.6237 C   0  0  2  0  0  0  0  0  0  0  0  0
  132.3305  164.2033  159.1610 C   0  0  1  0  0  0  0  0  0  0  0  0
  131.2203  164.8939  159.6466 O   0  0  0  0  0  0  0  0  0  0  0  0
  131.9745  163.1173  158.1927 C   0  0  1  0  0  0  0  0  0  0  0  0
  131.6230  163.5345  156.8163 C   0  0  0  0  0  0  0  0  0  0  0  0
  132.6226  163.1049  155.7942 C   0  0  0  0  0  0  0  0  0  0  0  0
  132.2123  162.9825  154.4594 C   0  0  0  0  0  0  0  0  0  0  0  0
  133.0794  162.5803  153.4901 C   0  0  0  0  0  0  0  0  0  0  0  0
  134.3892  162.2747  153.7637 C   0  0  0  0  0  0  0  0  0  0  0  0
  134.7838  162.3970  155.0758 C   0  0  0  0  0  0  0  0  0  0  0  0
  133.9186  162.8061  156.0856 C   0  0  0  0  0  0  0  0  0  0  0  0
  133.0320  162.1363  158.2371 N   0  0  0  0  0  0  0  0  0  0  0  0
  132.7230  160.8627  157.6517 C   0  0  0  0  0  0  0  0  0  0  0  0
  131.4901  160.2339  158.1682 C   0  0  0  0  0  0  0  0  0  0  0  0
  131.1687  160.0881  159.4909 C   0  0  0  0  0  0  0  0  0  0  0  0
  130.0125  159.4264  159.8405 C   0  0  0  0  0  0  0  0  0  0  0  0
  129.1658  158.9022  158.8949 C   0  0  0  0  0  0  0  0  0  0  0  0
  129.4715  159.0365  157.5436 C   0  0  0  0  0  0  0  0  0  0  0  0
  130.6226  159.6985  157.2102 C   0  0  0  0  0  0  0  0  0  0  0  0
  128.5800  158.4217  156.5819 C   0  0  0  0  0  0  0  0  0  0  0  0
  127.7289  159.1039  155.9468 O   0  0  0  0  0  0  0  0  0  0  0  0
  128.6508  157.0214  156.3396 N   0  0  0  0  0  0  0  0  0  0  0  0
  128.2436  156.5174  155.0740 C   0  0  0  0  0  0  0  0  0  0  0  0
  127.9702  155.2043  154.8125 N   0  0  0  0  0  0  0  0  0  0  0  0
  127.6091  155.0544  153.5393 C   0  0  0  0  0  0  0  0  0  0  0  0
  127.6534  156.3055  152.9746 C   0  0  0  0  0  0  0  0  0  0  0  0
  128.0463  157.1746  153.9449 N   0  0  0  0  0  0  0  0  0  0  0  0
  127.3157  156.4394  151.6305 C   0  0  0  0  0  0  0  0  0  0  0  0
  126.9422  155.3606  150.8572 C   0  0  0  0  0  0  0  0  0  0  0  0
  126.9069  154.1087  151.4511 C   0  0  0  0  0  0  0  0  0  0  0  0
  127.2381  153.9644  152.7791 C   0  0  0  0  0  0  0  0  0  0  0  0
  134.3516  162.2247  158.8178 C   0  0  0  0  0  0  0  0  0  0  0  0
  134.8790  161.1383  159.1687 O   0  0  0  0  0  0  0  0  0  0  0  0
  135.1099  163.4166  159.0282 N   0  0  0  0  0  0  0  0  0  0  0  0
  136.5520  163.1197  159.0458 C   0  0  0  0  0  0  0  0  0  0  0  0
  137.0407  162.6050  157.7512 C   0  0  0  0  0  0  0  0  0  0  0  0
  137.4273  163.5048  156.7598 C   0  0  0  0  0  0  0  0  0  0  0  0
  137.8777  163.0660  155.5246 C   0  0  0  0  0  0  0  0  0  0  0  0
  137.9343  161.6980  155.3043 C   0  0  0  0  0  0  0  0  0  0  0  0
  137.5561  160.7728  156.2725 C   0  0  0  0  0  0  0  0  0  0  0  0
  137.1070  161.2546  157.5032 C   0  0  0  0  0  0  0  0  0  0  0  0
  138.2805  163.9555  154.4608 C   0  0  0  0  0  0  0  0  0  0  0  0
  137.3961  164.5902  153.8161 O   0  0  0  0  0  0  0  0  0  0  0  0
  139.6238  164.1929  154.0581 N   0  0  0  0  0  0  0  0  0  0  0  0
  140.4024  163.2998  153.2695 C   0  0  0  0  0  0  0  0  0  0  0  0
  141.6949  163.5507  152.9006 N   0  0  0  0  0  0  0  0  0  0  0  0
  142.1700  162.5348  152.1685 C   0  0  0  0  0  0  0  0  0  0  0  0
  141.1519  161.6002  152.0630 C   0  0  0  0  0  0  0  0  0  0  0  0
  140.1008  162.1171  152.7506 N   0  0  0  0  0  0  0  0  0  0  0  0
  141.3677  160.4504  151.3550 C   0  0  0  0  0  0  0  0  0  0  0  0
  142.5621  160.1841  150.7402 C   0  0  0  0  0  0  0  0  0  0  0  0
  143.5620  161.1351  150.8620 C   0  0  0  0  0  0  0  0  0  0  0  0
  143.3929  162.2914  151.5554 C   0  0  0  0  0  0  0  0  0  0  0  0
  134.7592  164.8007  159.2231 C   0  0  2  0  0  0  0  0  0  0  0  0
  134.8787  165.1648  160.6682 C   0  0  0  0  0  0  0  0  0  0  0  0
  136.0802  164.6933  161.3580 C   0  0  0  0  0  0  0  0  0  0  0  0
  137.1447  165.5685  161.6187 C   0  0  0  0  0  0  0  0  0  0  0  0
  138.2841  165.1427  162.2436 C   0  0  0  0  0  0  0  0  0  0  0  0
  138.4428  163.8380  162.6468 C   0  0  0  0  0  0  0  0  0  0  0  0
  137.3983  162.9706  162.3931 C   0  0  0  0  0  0  0  0  0  0  0  0
  136.2529  163.3920  161.7666 C   0  0  0  0  0  0  0  0  0  0  0  0
  2  1  1  1
  2  3  1  0
  3  4  1  6
  3  5  1  0
  5  6  1  6
  6  7  1  0
  7  8  2  0
  8  9  1  0
  9 10  2  0
 10 11  1  0
 11 12  2  0
  5 13  1  0
 13 14  1  0
 14 15  1  0
 15 16  2  0
 16 17  1  0
 17 18  2  0
 18 19  1  0
 19 20  2  0
 19 21  1  0
 21 22  2  0
 21 23  1  0
 23 24  1  0
 24 25  2  0
 25 26  1  0
 26 27  2  0
 27 28  1  0
 27 29  1  0
 29 30  2  0
 30 31  1  0
 31 32  2  0
 13 33  1  0
 33 34  2  0
 33 35  1  0
 35 36  1  0
 36 37  1  0
 37 38  2  0
 38 39  1  0
 39 40  2  0
 40 41  1  0
 41 42  2  0
 39 43  1  0
 43 44  2  0
 43 45  1  0
 45 46  1  0
 46 47  2  0
 47 48  1  0
 48 49  2  0
 49 50  1  0
 49 51  1  0
 51 52  2  0
 52 53  1  0
 53 54  2  0
 35 55  1  0
 55 56  1  1
 56 57  1  0
 57 58  2  0
 58 59  1  0
 59 60  2  0
 60 61  1  0
 61 62  2  0
 55  2  1  0
 62 57  1  0
 12  7  1  0
 20 15  1  0
 28 24  1  0
 42 37  1  0
 50 46  1  0
 32 26  1  0
 54 48  1  0
M  END
$$$$
