
     RDKit          3D

 62 70  0  0  0  0  0  0  0  0999 V2000
  134.2014  164.1605  150.1055 O   0  0  0  0  0  0  0  0  0  0  0  0
  134.0567  164.0446  151.4999 C   0  0  2  0  0  0  0  0  0  0  0  0
  132.6176  163.9611  151.8417 C   0  0  1  0  0  0  0  0  0  0  0  0
  131.7613  163.9630  150.7408 O   0  0  0  0  0  0  0  0  0  0  0  0
  132.3513  162.8381  152.7965 C   0  0  1  0  0  0  0  0  0  0  0  0
  132.8388  161.4957  152.4060 C   0  0  0  0  0  0  0  0  0  0  0  0
  132.8924  160.5313  153.5442 C   0  0  0  0  0  0  0  0  0  0  0  0
  132.2923  159.2737  153.3914 C   0  0  0  0  0  0  0  0  0  0  0  0
  132.2995  158.3624  154.4026 C   0  0  0  0  0  0  0  0  0  0  0  0
  132.8875  158.6225  155.6152 C   0  0  0  0  0  0  0  0  0  0  0  0
  133.4739  159.8587  155.7572 C   0  0  0  0  0  0  0  0  0  0  0  0
  133.4812  160.8081  154.7402 C   0  0  0  0  0  0  0  0  0  0  0  0
  132.8183  163.2569  154.0961 N   0  0  0  0  0  0  0  0  0  0  0  0
  132.3481  162.4780  155.2061 C   0  0  0  0  0  0  0  0  0  0  0  0
  130.8823  162.3002  155.2527 C   0  0  0  0  0  0  0  0  0  0  0  0
  129.9588  163.3083  155.1831 C   0  0  0  0  0  0  0  0  0  0  0  0
  128.6189  163.0120  155.2999 C   0  0  0  0  0  0  0  0  0  0  0  0
  128.1771  161.7253  155.4874 C   0  0  0  0  0  0  0  0  0  0  0  0
  129.0968  160.6832  155.5627 C   0  0  0  0  0  0  0  0  0  0  0  0
  130.4253  160.9917  155.4427 C   0  0  0  0  0  0  0  0  0  0  0  0
  128.5919  159.3495  155.8158 C   0  0  0  0  0  0  0  0  0  0  0  0
  129.0579  158.6377  156.7481 O   0  0  0  0  0  0  0  0  0  0  0  0
  127.5526  158.8159  155.0037 N   0  0  0  0  0  0  0  0  0  0  0  0
  126.8704  157.6453  155.4348 C   0  0  0  0  0  0  0  0  0  0  0  0
  126.6635  157.3038  156.7417 N   0  0  0  0  0  0  0  0  0  0  0  0
  125.9897  156.1574  156.8164 C   0  0  0  0  0  0  0  0  0  0  0  0
  125.7610  155.7579  155.5225 C   0  0  0  0  0  0  0  0  0  0  0  0
  126.3152  156.6938  154.7052 N   0  0  0  0  0  0  0  0  0  0  0  0
  125.0635  154.5723  155.3074 C   0  0  0  0  0  0  0  0  0  0  0  0
  124.6007  153.7946  156.3477 C   0  0  0  0  0  0  0  0  0  0  0  0
  124.8459  154.2197  157.6440 C   0  0  0  0  0  0  0  0  0  0  0  0
  125.5339  155.3902  157.8687 C   0  0  0  0  0  0  0  0  0  0  0  0
  133.6624  164.3710  154.4605 C   0  0  0  0  0  0  0  0  0  0  0  0
  133.5229  164.8161  155.6284 O   0  0  0  0  0  0  0  0  0  0  0  0
  134.6337  165.0092  153.6303 N   0  0  0  0  0  0  0  0  0  0  0  0
  135.6831  165.6405  154.4478 C   0  0  0  0  0  0  0  0  0  0  0  0
  136.6475  164.6612  154.9870 C   0  0  0  0  0  0  0  0  0  0  0  0
  137.2036  164.8721  156.2472 C   0  0  0  0  0  0  0  0  0  0  0  0
  138.1241  163.9869  156.7858 C   0  0  0  0  0  0  0  0  0  0  0  0
  138.4756  162.8784  156.0302 C   0  0  0  0  0  0  0  0  0  0  0  0
  137.9392  162.6380  154.7689 C   0  0  0  0  0  0  0  0  0  0  0  0
  137.0161  163.5537  154.2610 C   0  0  0  0  0  0  0  0  0  0  0  0
  138.7369  164.1638  158.0814 C   0  0  0  0  0  0  0  0  0  0  0  0
  138.8283  163.1735  158.8634 O   0  0  0  0  0  0  0  0  0  0  0  0
  139.2658  165.3882  158.5754 N   0  0  0  0  0  0  0  0  0  0  0  0
  139.7210  165.5941  159.9081 C   0  0  0  0  0  0  0  0  0  0  0  0
  139.9053  164.5804  160.8070 N   0  0  0  0  0  0  0  0  0  0  0  0
  140.3410  165.0734  161.9736 C   0  0  0  0  0  0  0  0  0  0  0  0
  140.4411  166.4473  161.8211 C   0  0  0  0  0  0  0  0  0  0  0  0
  140.0515  166.7087  160.5465 N   0  0  0  0  0  0  0  0  0  0  0  0
  140.8646  167.2100  162.8742 C   0  0  0  0  0  0  0  0  0  0  0  0
  141.1969  166.6635  164.0851 C   0  0  0  0  0  0  0  0  0  0  0  0
  141.0879  165.2882  164.2096 C   0  0  0  0  0  0  0  0  0  0  0  0
  140.6719  164.4908  163.1909 C   0  0  0  0  0  0  0  0  0  0  0  0
  134.7851  165.1567  152.2048 C   0  0  2  0  0  0  0  0  0  0  0  0
  134.3740  166.5304  151.7816 C   0  0  0  0  0  0  0  0  0  0  0  0
  135.4337  167.5387  151.7361 C   0  0  0  0  0  0  0  0  0  0  0  0
  136.5809  167.4068  152.5322 C   0  0  0  0  0  0  0  0  0  0  0  0
  137.5725  168.3481  152.5193 C   0  0  0  0  0  0  0  0  0  0  0  0
  137.4951  169.4688  151.7269 C   0  0  0  0  0  0  0  0  0  0  0  0
  136.3679  169.6053  150.9402 C   0  0  0  0  0  0  0  0  0  0  0  0
  135.3698  168.6641  150.9490 C   0  0  0  0  0  0  0  0  0  0  0  0
  2  1  1  6
  2  3  1  0
  3  4  1  6
  3  5  1  0
  5  6  1  6
  6  7  1  0
  7  8  2  0
  8  9  1  0
  9 10  2  0
 10 11  1  0
 11 12  2  0
  5 13  1  0
 13 14  1  0
 14 15  1  0
 15 16  2  0
 16 17  1  0
 17 18  2  0
 18 19  1  0
 19 20  2  0
 19 21  1  0
 21 22  2  0
 21 23  1  0
 23 24  1  0
 24 25  2  0
 25 26  1  0
 26 27  2  0
 27 28  1  0
 27 29  1  0
 29 30  2  0
 30 31  1  0
 31 32  2  0
 13 33  1  0
 33 34  2  0
 33 35  1  0
 35 36  1  0
 36 37  1  0
 37 38  2  0
 38 39  1  0
 39 40  2  0
 40 41  1  0
 41 42  2  0
 39 43  1  0
 43 44  2  0
 43 45  1  0
 45 46  1  0
 46 47  2  0
 47 48  1  0
 48 49  2  0
 49 50  1  0
 49 51  1  0
 51 52  2  0
 52 53  1  0
 53 54  2  0
 35 55  1  0
 55 56  1  6
 56 57  1  0
 57 58  2  0
 58 59  1  0
 59 60  2  0
 60 61  1  0
 61 62  2  0
 55  2  1  0
 62 57  1  0
 12  7  1  0
 20 15  1  0
 28 24  1  0
 42 37  1  0
 50 46  1  0
 32 26  1  0
 54 48  1  0
M  END
$$$$
