
     RDKit          3D

 62 70  0  0  0  0  0  0  0  0999 V2000
  145.8044  163.2426  130.9539 O   0  0  0  0  0  0  0  0  0  0  0  0
  146.6209  164.3764  130.7917 C   0  0  2  0  0  0  0  0  0  0  0  0
  147.8138  164.0154  129.9908 C   0  0  1  0  0  0  0  0  0  0  0  0
  147.8337  162.6929  129.5480 O   0  0  0  0  0  0  0  0  0  0  0  0
  148.0530  165.0094  128.8960 C   0  0  1  0  0  0  0  0  0  0  0  0
  146.9200  165.2898  127.9851 C   0  0  0  0  0  0  0  0  0  0  0  0
  147.2511  165.0753  126.5454 C   0  0  0  0  0  0  0  0  0  0  0  0
  146.8208  166.0227  125.6060 C   0  0  0  0  0  0  0  0  0  0  0  0
  147.0830  165.8682  124.2792 C   0  0  0  0  0  0  0  0  0  0  0  0
  147.7748  164.7870  123.7930 C   0  0  0  0  0  0  0  0  0  0  0  0
  148.1932  163.8618  124.7210 C   0  0  0  0  0  0  0  0  0  0  0  0
  147.9392  163.9955  126.0824 C   0  0  0  0  0  0  0  0  0  0  0  0
  148.6010  166.1976  129.5046 N   0  0  0  0  0  0  0  0  0  0  0  0
  149.2178  167.1292  128.6037 C   0  0  0  0  0  0  0  0  0  0  0  0
  150.6945  167.0886  128.5965 C   0  0  0  0  0  0  0  0  0  0  0  0
  151.5056  167.5706  129.5884 C   0  0  0  0  0  0  0  0  0  0  0  0
  152.8730  167.5257  129.4301 C   0  0  0  0  0  0  0  0  0  0  0  0
  153.4528  167.0096  128.2973 C   0  0  0  0  0  0  0  0  0  0  0  0
  152.6492  166.5146  127.2742 C   0  0  0  0  0  0  0  0  0  0  0  0
  151.2917  166.5632  127.4457 C   0  0  0  0  0  0  0  0  0  0  0  0
  153.2997  166.0298  126.0745 C   0  0  0  0  0  0  0  0  0  0  0  0
  154.5578  165.9907  125.9805 O   0  0  0  0  0  0  0  0  0  0  0  0
  152.5188  165.5887  124.9700 N   0  0  0  0  0  0  0  0  0  0  0  0
  153.1132  165.5378  123.6794 C   0  0  0  0  0  0  0  0  0  0  0  0
  154.4500  165.6793  123.4340 N   0  0  0  0  0  0  0  0  0  0  0  0
  154.6914  165.5763  122.1283 C   0  0  0  0  0  0  0  0  0  0  0  0
  153.4758  165.3631  121.5257 C   0  0  0  0  0  0  0  0  0  0  0  0
  152.5340  165.3463  122.5073 N   0  0  0  0  0  0  0  0  0  0  0  0
  153.4379  165.2155  120.1417 C   0  0  0  0  0  0  0  0  0  0  0  0
  154.5762  165.2775  119.3661 C   0  0  0  0  0  0  0  0  0  0  0  0
  155.7901  165.4948  119.9989 C   0  0  0  0  0  0  0  0  0  0  0  0
  155.8398  165.6416  121.3664 C   0  0  0  0  0  0  0  0  0  0  0  0
  148.6595  166.5811  130.8960 C   0  0  0  0  0  0  0  0  0  0  0  0
  149.5857  167.3686  131.2176 O   0  0  0  0  0  0  0  0  0  0  0  0
  147.7731  166.1576  131.9328 N   0  0  0  0  0  0  0  0  0  0  0  0
  147.7263  167.1532  133.0165 C   0  0  0  0  0  0  0  0  0  0  0  0
  146.6867  168.1789  132.7995 C   0  0  0  0  0  0  0  0  0  0  0  0
  146.9449  169.2416  131.9358 C   0  0  0  0  0  0  0  0  0  0  0  0
  146.0038  170.2348  131.7143 C   0  0  0  0  0  0  0  0  0  0  0  0
  144.7907  170.1379  132.3796 C   0  0  0  0  0  0  0  0  0  0  0  0
  144.5009  169.0901  133.2482 C   0  0  0  0  0  0  0  0  0  0  0  0
  145.4754  168.1102  133.4455 C   0  0  0  0  0  0  0  0  0  0  0  0
  146.2243  171.3612  130.8381 C   0  0  0  0  0  0  0  0  0  0  0  0
  146.8828  172.3551  131.2612 O   0  0  0  0  0  0  0  0  0  0  0  0
  145.7555  171.4595  129.4989 N   0  0  0  0  0  0  0  0  0  0  0  0
  146.3147  170.7609  128.3921 C   0  0  0  0  0  0  0  0  0  0  0  0
  147.6591  170.6676  128.1608 N   0  0  0  0  0  0  0  0  0  0  0  0
  147.8867  169.9498  127.0531 C   0  0  0  0  0  0  0  0  0  0  0  0
  146.6505  169.5686  126.5559 C   0  0  0  0  0  0  0  0  0  0  0  0
  145.7307  170.0894  127.4088 N   0  0  0  0  0  0  0  0  0  0  0  0
  146.5889  168.8201  125.4131 C   0  0  0  0  0  0  0  0  0  0  0  0
  147.7124  168.4289  124.7346 C   0  0  0  0  0  0  0  0  0  0  0  0
  148.9345  168.8235  125.2538 C   0  0  0  0  0  0  0  0  0  0  0  0
  149.0439  169.5671  126.3860 C   0  0  0  0  0  0  0  0  0  0  0  0
  146.9481  164.9918  132.1254 C   0  0  2  0  0  0  0  0  0  0  0  0
  147.5951  164.0563  133.0956 C   0  0  0  0  0  0  0  0  0  0  0  0
  147.8465  164.5855  134.4366 C   0  0  0  0  0  0  0  0  0  0  0  0
  147.9509  165.9675  134.6519 C   0  0  0  0  0  0  0  0  0  0  0  0
  148.2057  166.4807  135.8935 C   0  0  0  0  0  0  0  0  0  0  0  0
  148.3720  165.6694  136.9908 C   0  0  0  0  0  0  0  0  0  0  0  0
  148.2705  164.3072  136.7860 C   0  0  0  0  0  0  0  0  0  0  0  0
  148.0150  163.7865  135.5427 C   0  0  0  0  0  0  0  0  0  0  0  0
  2  1  1  1
  2  3  1  0
  3  4  1  6
  3  5  1  0
  5  6  1  1
  6  7  1  0
  7  8  2  0
  8  9  1  0
  9 10  2  0
 10 11  1  0
 11 12  2  0
  5 13  1  0
 13 14  1  0
 14 15  1  0
 15 16  2  0
 16 17  1  0
 17 18  2  0
 18 19  1  0
 19 20  2  0
 19 21  1  0
 21 22  2  0
 21 23  1  0
 23 24  1  0
 24 25  2  0
 25 26  1  0
 26 27  2  0
 27 28  1  0
 27 29  1  0
 29 30  2  0
 30 31  1  0
 31 32  2  0
 13 33  1  0
 33 34  2  0
 33 35  1  0
 35 36  1  0
 36 37  1  0
 37 38  2  0
 38 39  1  0
 39 40  2  0
 40 41  1  0
 41 42  2  0
 39 43  1  0
 43 44  2  0
 43 45  1  0
 45 46  1  0
 46 47  2  0
 47 48  1  0
 48 49  2  0
 49 50  1  0
 49 51  1  0
 51 52  2  0
 52 53  1  0
 53 54  2  0
 35 55  1  0
 55 56  1  1
 56 57  1  0
 57 58  2  0
 58 59  1  0
 59 60  2  0
 60 61  1  0
 61 62  2  0
 55  2  1  0
 62 57  1  0
 12  7  1  0
 20 15  1  0
 28 24  1  0
 42 37  1  0
 50 46  1  0
 32 26  1  0
 54 48  1  0
M  END
$$$$
