
     RDKit          3D

 62 70  0  0  0  0  0  0  0  0999 V2000
  188.2301  156.6431  124.4049 O   0  0  0  0  0  0  0  0  0  0  0  0
  189.0129  157.7225  123.9569 C   0  0  2  0  0  0  0  0  0  0  0  0
  190.4125  157.5372  124.4058 C   0  0  1  0  0  0  0  0  0  0  0  0
  190.6438  156.3508  125.1017 O   0  0  0  0  0  0  0  0  0  0  0  0
  191.3767  157.7610  123.2815 C   0  0  1  0  0  0  0  0  0  0  0  0
  191.1545  156.9822  122.0421 C   0  0  0  0  0  0  0  0  0  0  0  0
  192.3999  156.7650  121.2483 C   0  0  0  0  0  0  0  0  0  0  0  0
  193.5664  156.3703  121.9182 C   0  0  0  0  0  0  0  0  0  0  0  0
  194.7327  156.1728  121.2447 C   0  0  0  0  0  0  0  0  0  0  0  0
  194.8301  156.3484  119.8869 C   0  0  0  0  0  0  0  0  0  0  0  0
  193.6814  156.7360  119.2371 C   0  0  0  0  0  0  0  0  0  0  0  0
  192.4764  156.9443  119.9008 C   0  0  0  0  0  0  0  0  0  0  0  0
  191.4505  159.1841  123.0535 N   0  0  0  0  0  0  0  0  0  0  0  0
  192.5635  159.6301  122.2646 C   0  0  0  0  0  0  0  0  0  0  0  0
  192.1988  160.4963  121.1250 C   0  0  0  0  0  0  0  0  0  0  0  0
  190.9216  160.8066  120.7419 C   0  0  0  0  0  0  0  0  0  0  0  0
  190.7171  161.5789  119.6200 C   0  0  0  0  0  0  0  0  0  0  0  0
  191.7640  162.0498  118.8663 C   0  0  0  0  0  0  0  0  0  0  0  0
  193.0717  161.7468  119.2347 C   0  0  0  0  0  0  0  0  0  0  0  0
  193.2606  160.9803  120.3533 C   0  0  0  0  0  0  0  0  0  0  0  0
  194.1434  162.2174  118.3817 C   0  0  0  0  0  0  0  0  0  0  0  0
  195.0379  161.4335  117.9593 O   0  0  0  0  0  0  0  0  0  0  0  0
  194.2045  163.5884  118.0063 N   0  0  0  0  0  0  0  0  0  0  0  0
  195.2203  164.0144  117.1072 C   0  0  0  0  0  0  0  0  0  0  0  0
  196.1277  165.0014  117.3719 N   0  0  0  0  0  0  0  0  0  0  0  0
  196.9494  165.1605  116.3359 C   0  0  0  0  0  0  0  0  0  0  0  0
  196.5551  164.2504  115.3859 C   0  0  0  0  0  0  0  0  0  0  0  0
  195.4938  163.5676  115.8942 N   0  0  0  0  0  0  0  0  0  0  0  0
  197.2560  164.2000  114.1838 C   0  0  0  0  0  0  0  0  0  0  0  0
  198.3246  165.0311  113.9226 C   0  0  0  0  0  0  0  0  0  0  0  0
  198.7013  165.9415  114.8975 C   0  0  0  0  0  0  0  0  0  0  0  0
  198.0163  166.0000  116.0898 C   0  0  0  0  0  0  0  0  0  0  0  0
  190.5921  160.2429  123.5315 C   0  0  0  0  0  0  0  0  0  0  0  0
  191.1148  161.3828  123.6264 O   0  0  0  0  0  0  0  0  0  0  0  0
  189.2179  160.1219  123.9015 N   0  0  0  0  0  0  0  0  0  0  0  0
  188.5215  161.4098  123.7456 C   0  0  0  0  0  0  0  0  0  0  0  0
  189.1949  162.5091  124.4653 C   0  0  0  0  0  0  0  0  0  0  0  0
  189.8042  162.2510  125.6917 C   0  0  0  0  0  0  0  0  0  0  0  0
  190.4344  163.2559  126.4087 C   0  0  0  0  0  0  0  0  0  0  0  0
  190.4423  164.5319  125.8655 C   0  0  0  0  0  0  0  0  0  0  0  0
  189.8437  164.8235  124.6436 C   0  0  0  0  0  0  0  0  0  0  0  0
  189.2182  163.7842  123.9526 C   0  0  0  0  0  0  0  0  0  0  0  0
  191.0716  163.0441  127.6870 C   0  0  0  0  0  0  0  0  0  0  0  0
  191.5660  164.0320  128.3037 O   0  0  0  0  0  0  0  0  0  0  0  0
  191.1980  161.7865  128.3392 N   0  0  0  0  0  0  0  0  0  0  0  0
  191.7983  161.5930  129.6151 C   0  0  0  0  0  0  0  0  0  0  0  0
  192.6300  162.5051  130.2033 N   0  0  0  0  0  0  0  0  0  0  0  0
  193.0371  162.0541  131.3969 C   0  0  0  0  0  0  0  0  0  0  0  0
  192.4491  160.8131  131.5835 C   0  0  0  0  0  0  0  0  0  0  0  0
  191.7072  160.5825  130.4694 N   0  0  0  0  0  0  0  0  0  0  0  0
  192.7014  160.1173  132.7334 C   0  0  0  0  0  0  0  0  0  0  0  0
  193.5204  160.6041  133.7171 C   0  0  0  0  0  0  0  0  0  0  0  0
  194.0946  161.8467  133.5046 C   0  0  0  0  0  0  0  0  0  0  0  0
  193.8726  162.5736  132.3781 C   0  0  0  0  0  0  0  0  0  0  0  0
  188.4067  159.0323  124.3827 C   0  0  2  0  0  0  0  0  0  0  0  0
  188.1889  159.1626  125.8560 C   0  0  0  0  0  0  0  0  0  0  0  0
  187.0848  160.0275  126.2738 C   0  0  0  0  0  0  0  0  0  0  0  0
  185.7620  159.5621  126.2460 C   0  0  0  0  0  0  0  0  0  0  0  0
  184.7148  160.3612  126.6129 C   0  0  0  0  0  0  0  0  0  0  0  0
  184.9056  161.6582  127.0265 C   0  0  0  0  0  0  0  0  0  0  0  0
  186.2060  162.1232  127.0563 C   0  0  0  0  0  0  0  0  0  0  0  0
  187.2606  161.3262  126.6895 C   0  0  0  0  0  0  0  0  0  0  0  0
  2  1  1  1
  2  3  1  0
  3  4  1  6
  3  5  1  0
  5  6  1  6
  6  7  1  0
  7  8  2  0
  8  9  1  0
  9 10  2  0
 10 11  1  0
 11 12  2  0
  5 13  1  0
 13 14  1  0
 14 15  1  0
 15 16  2  0
 16 17  1  0
 17 18  2  0
 18 19  1  0
 19 20  2  0
 19 21  1  0
 21 22  2  0
 21 23  1  0
 23 24  1  0
 24 25  2  0
 25 26  1  0
 26 27  2  0
 27 28  1  0
 27 29  1  0
 29 30  2  0
 30 31  1  0
 31 32  2  0
 13 33  1  0
 33 34  2  0
 33 35  1  0
 35 36  1  0
 36 37  1  0
 37 38  2  0
 38 39  1  0
 39 40  2  0
 40 41  1  0
 41 42  2  0
 39 43  1  0
 43 44  2  0
 43 45  1  0
 45 46  1  0
 46 47  2  0
 47 48  1  0
 48 49  2  0
 49 50  1  0
 49 51  1  0
 51 52  2  0
 52 53  1  0
 53 54  2  0
 35 55  1  0
 55 56  1  1
 56 57  1  0
 57 58  2  0
 58 59  1  0
 59 60  2  0
 60 61  1  0
 61 62  2  0
 55  2  1  0
 62 57  1  0
 12  7  1  0
 20 15  1  0
 28 24  1  0
 42 37  1  0
 50 46  1  0
 32 26  1  0
 54 48  1  0
M  END
$$$$
