
     RDKit          3D

 62 70  0  0  0  0  0  0  0  0999 V2000
  121.9577  164.2161  149.2991 O   0  0  0  0  0  0  0  0  0  0  0  0
  122.2762  165.0720  148.2293 C   0  0  2  0  0  0  0  0  0  0  0  0
  123.5693  165.7420  148.5010 C   0  0  1  0  0  0  0  0  0  0  0  0
  124.1852  165.3488  149.6891 O   0  0  0  0  0  0  0  0  0  0  0  0
  124.4775  165.6704  147.3120 C   0  0  1  0  0  0  0  0  0  0  0  0
  124.7335  164.3276  146.7433 C   0  0  0  0  0  0  0  0  0  0  0  0
  126.1138  164.1695  146.1972 C   0  0  0  0  0  0  0  0  0  0  0  0
  126.2864  164.1097  144.8073 C   0  0  0  0  0  0  0  0  0  0  0  0
  127.5214  163.9516  144.2571 C   0  0  0  0  0  0  0  0  0  0  0  0
  128.6538  163.8420  145.0250 C   0  0  0  0  0  0  0  0  0  0  0  0
  128.4760  163.9012  146.3877 C   0  0  0  0  0  0  0  0  0  0  0  0
  127.2255  164.0627  146.9760 C   0  0  0  0  0  0  0  0  0  0  0  0
  123.9887  166.6167  146.3383 N   0  0  0  0  0  0  0  0  0  0  0  0
  124.9033  166.9522  145.2844 C   0  0  0  0  0  0  0  0  0  0  0  0
  125.8967  167.9858  145.6411 C   0  0  0  0  0  0  0  0  0  0  0  0
  125.6161  169.1765  146.2556 C   0  0  0  0  0  0  0  0  0  0  0  0
  126.6297  170.0820  146.4781 C   0  0  0  0  0  0  0  0  0  0  0  0
  127.9240  169.8257  146.0974 C   0  0  0  0  0  0  0  0  0  0  0  0
  128.2341  168.6227  145.4698 C   0  0  0  0  0  0  0  0  0  0  0  0
  127.2174  167.7307  145.2570 C   0  0  0  0  0  0  0  0  0  0  0  0
  129.6004  168.4161  145.0359 C   0  0  0  0  0  0  0  0  0  0  0  0
  130.3530  167.5831  145.6127 O   0  0  0  0  0  0  0  0  0  0  0  0
  130.1200  169.1618  143.9412 N   0  0  0  0  0  0  0  0  0  0  0  0
  131.4701  169.6057  143.9858 C   0  0  0  0  0  0  0  0  0  0  0  0
  131.8659  170.8481  144.3947 N   0  0  0  0  0  0  0  0  0  0  0  0
  133.1919  170.9533  144.3283 C   0  0  0  0  0  0  0  0  0  0  0  0
  133.6532  169.7455  143.8649 C   0  0  0  0  0  0  0  0  0  0  0  0
  132.5699  168.9468  143.6664 N   0  0  0  0  0  0  0  0  0  0  0  0
  135.0257  169.5782  143.7002 C   0  0  0  0  0  0  0  0  0  0  0  0
  135.9264  170.5822  143.9861 C   0  0  0  0  0  0  0  0  0  0  0  0
  135.4347  171.7917  144.4511 C   0  0  0  0  0  0  0  0  0  0  0  0
  134.0801  171.9685  144.6183 C   0  0  0  0  0  0  0  0  0  0  0  0
  122.7249  167.3137  146.2798 C   0  0  0  0  0  0  0  0  0  0  0  0
  122.7220  168.4097  145.6629 O   0  0  0  0  0  0  0  0  0  0  0  0
  121.4880  166.8811  146.8480 N   0  0  0  0  0  0  0  0  0  0  0  0
  120.3486  167.4610  146.1176 C   0  0  0  0  0  0  0  0  0  0  0  0
  119.0691  166.8024  146.4479 C   0  0  0  0  0  0  0  0  0  0  0  0
  118.4228  166.0390  145.4777 C   0  0  0  0  0  0  0  0  0  0  0  0
  117.2128  165.4158  145.7394 C   0  0  0  0  0  0  0  0  0  0  0  0
  116.6626  165.5737  147.0027 C   0  0  0  0  0  0  0  0  0  0  0  0
  117.2819  166.3287  147.9941 C   0  0  0  0  0  0  0  0  0  0  0  0
  118.4989  166.9415  147.6909 C   0  0  0  0  0  0  0  0  0  0  0  0
  116.4976  164.6226  144.7675 C   0  0  0  0  0  0  0  0  0  0  0  0
  117.1405  163.8238  144.0265 O   0  0  0  0  0  0  0  0  0  0  0  0
  115.0910  164.6564  144.5602 N   0  0  0  0  0  0  0  0  0  0  0  0
  114.3981  163.8884  143.5826 C   0  0  0  0  0  0  0  0  0  0  0  0
  113.0410  163.9231  143.4193 N   0  0  0  0  0  0  0  0  0  0  0  0
  112.6758  163.1028  142.4256 C   0  0  0  0  0  0  0  0  0  0  0  0
  113.8338  162.5220  141.9331 C   0  0  0  0  0  0  0  0  0  0  0  0
  114.8503  163.0351  142.6734 N   0  0  0  0  0  0  0  0  0  0  0  0
  113.7495  161.6271  140.9025 C   0  0  0  0  0  0  0  0  0  0  0  0
  112.5536  161.2795  140.3328 C   0  0  0  0  0  0  0  0  0  0  0  0
  111.4124  161.8752  140.8442 C   0  0  0  0  0  0  0  0  0  0  0  0
  111.4481  162.7695  141.8669 C   0  0  0  0  0  0  0  0  0  0  0  0
  121.1442  166.0248  147.9549 C   0  0  2  0  0  0  0  0  0  0  0  0
  120.7282  166.8459  149.1329 C   0  0  0  0  0  0  0  0  0  0  0  0
  120.1169  168.1420  148.8359 C   0  0  0  0  0  0  0  0  0  0  0  0
  120.4913  168.8640  147.6933 C   0  0  0  0  0  0  0  0  0  0  0  0
  119.9469  170.0858  147.4090 C   0  0  0  0  0  0  0  0  0  0  0  0
  119.0072  170.6664  148.2273 C   0  0  0  0  0  0  0  0  0  0  0  0
  118.6338  169.9608  149.3546 C   0  0  0  0  0  0  0  0  0  0  0  0
  119.1765  168.7348  149.6449 C   0  0  0  0  0  0  0  0  0  0  0  0
  2  1  1  1
  2  3  1  0
  3  4  1  1
  3  5  1  0
  5  6  1  6
  6  7  1  0
  7  8  2  0
  8  9  1  0
  9 10  2  0
 10 11  1  0
 11 12  2  0
  5 13  1  0
 13 14  1  0
 14 15  1  0
 15 16  2  0
 16 17  1  0
 17 18  2  0
 18 19  1  0
 19 20  2  0
 19 21  1  0
 21 22  2  0
 21 23  1  0
 23 24  1  0
 24 25  2  0
 25 26  1  0
 26 27  2  0
 27 28  1  0
 27 29  1  0
 29 30  2  0
 30 31  1  0
 31 32  2  0
 13 33  1  0
 33 34  2  0
 33 35  1  0
 35 36  1  0
 36 37  1  0
 37 38  2  0
 38 39  1  0
 39 40  2  0
 40 41  1  0
 41 42  2  0
 39 43  1  0
 43 44  2  0
 43 45  1  0
 45 46  1  0
 46 47  2  0
 47 48  1  0
 48 49  2  0
 49 50  1  0
 49 51  1  0
 51 52  2  0
 52 53  1  0
 53 54  2  0
 35 55  1  0
 55 56  1  1
 56 57  1  0
 57 58  2  0
 58 59  1  0
 59 60  2  0
 60 61  1  0
 61 62  2  0
 55  2  1  0
 62 57  1  0
 12  7  1  0
 20 15  1  0
 28 24  1  0
 42 37  1  0
 50 46  1  0
 32 26  1  0
 54 48  1  0
M  END
$$$$
