
     RDKit          3D

 62 70  0  0  0  0  0  0  0  0999 V2000
  190.3279  161.2276  136.2766 O   0  0  0  0  0  0  0  0  0  0  0  0
  188.9362  161.3292  136.4535 C   0  0  2  0  0  0  0  0  0  0  0  0
  188.6260  161.3978  137.9005 C   0  0  1  0  0  0  0  0  0  0  0  0
  189.7458  161.3995  138.7319 O   0  0  0  0  0  0  0  0  0  0  0  0
  187.6671  162.5096  138.1974 C   0  0  1  0  0  0  0  0  0  0  0  0
  188.0340  163.8595  137.7124 C   0  0  0  0  0  0  0  0  0  0  0  0
  187.0586  164.9169  138.1108 C   0  0  0  0  0  0  0  0  0  0  0  0
  185.7668  164.8821  137.5674 C   0  0  0  0  0  0  0  0  0  0  0  0
  184.8432  165.8301  137.8856 C   0  0  0  0  0  0  0  0  0  0  0  0
  185.1233  166.8621  138.7461 C   0  0  0  0  0  0  0  0  0  0  0  0
  186.3930  166.8893  139.2746 C   0  0  0  0  0  0  0  0  0  0  0  0
  187.3557  165.9332  138.9668 C   0  0  0  0  0  0  0  0  0  0  0  0
  186.3613  162.0822  137.7562 N   0  0  0  0  0  0  0  0  0  0  0  0
  185.2549  162.8468  138.2576 C   0  0  0  0  0  0  0  0  0  0  0  0
  184.6050  162.2725  139.4534 C   0  0  0  0  0  0  0  0  0  0  0  0
  185.2578  161.7138  140.5192 C   0  0  0  0  0  0  0  0  0  0  0  0
  184.5291  161.1572  141.5469 C   0  0  0  0  0  0  0  0  0  0  0  0
  183.1560  161.1437  141.5343 C   0  0  0  0  0  0  0  0  0  0  0  0
  182.4694  161.7045  140.4611 C   0  0  0  0  0  0  0  0  0  0  0  0
  183.2062  162.2563  139.4476 C   0  0  0  0  0  0  0  0  0  0  0  0
  181.0236  161.6201  140.4618 C   0  0  0  0  0  0  0  0  0  0  0  0
  180.4315  160.5057  140.4846 O   0  0  0  0  0  0  0  0  0  0  0  0
  180.2413  162.8083  140.4331 N   0  0  0  0  0  0  0  0  0  0  0  0
  178.9072  162.7460  139.9455 C   0  0  0  0  0  0  0  0  0  0  0  0
  177.9475  161.8944  140.4158 N   0  0  0  0  0  0  0  0  0  0  0  0
  176.8034  162.0840  139.7607 C   0  0  0  0  0  0  0  0  0  0  0  0
  177.0405  163.0833  138.8490 C   0  0  0  0  0  0  0  0  0  0  0  0
  178.3392  163.4628  138.9919 N   0  0  0  0  0  0  0  0  0  0  0  0
  175.9968  163.4874  138.0208 C   0  0  0  0  0  0  0  0  0  0  0  0
  174.7433  162.9171  138.0893 C   0  0  0  0  0  0  0  0  0  0  0  0
  174.5308  161.9097  139.0172 C   0  0  0  0  0  0  0  0  0  0  0  0
  175.5549  161.5023  139.8415 C   0  0  0  0  0  0  0  0  0  0  0  0
  185.9883  160.9715  136.9114 C   0  0  0  0  0  0  0  0  0  0  0  0
  184.8281  160.5143  137.0733 O   0  0  0  0  0  0  0  0  0  0  0  0
  186.8024  160.3491  135.9164 N   0  0  0  0  0  0  0  0  0  0  0  0
  185.9674  159.7185  134.8804 C   0  0  0  0  0  0  0  0  0  0  0  0
  185.5448  158.3522  135.2470 C   0  0  0  0  0  0  0  0  0  0  0  0
  185.5976  157.3406  134.2900 C   0  0  0  0  0  0  0  0  0  0  0  0
  185.1965  156.0473  134.5860 C   0  0  0  0  0  0  0  0  0  0  0  0
  184.7406  155.7883  135.8700 C   0  0  0  0  0  0  0  0  0  0  0  0
  184.6755  156.7751  136.8489 C   0  0  0  0  0  0  0  0  0  0  0  0
  185.0875  158.0654  136.5111 C   0  0  0  0  0  0  0  0  0  0  0  0
  185.2220  154.9658  133.6295 C   0  0  0  0  0  0  0  0  0  0  0  0
  186.2776  154.7505  132.9663 O   0  0  0  0  0  0  0  0  0  0  0  0
  184.1348  154.0906  133.3558 N   0  0  0  0  0  0  0  0  0  0  0  0
  183.4429  154.0229  132.1139 C   0  0  0  0  0  0  0  0  0  0  0  0
  182.0824  153.9302  132.0129 N   0  0  0  0  0  0  0  0  0  0  0  0
  181.7185  153.8874  130.7247 C   0  0  0  0  0  0  0  0  0  0  0  0
  182.8807  153.9551  129.9726 C   0  0  0  0  0  0  0  0  0  0  0  0
  183.8984  154.0357  130.8684 N   0  0  0  0  0  0  0  0  0  0  0  0
  182.7992  153.9259  128.6078 C   0  0  0  0  0  0  0  0  0  0  0  0
  181.6021  153.8315  127.9493 C   0  0  0  0  0  0  0  0  0  0  0  0
  180.4567  153.7656  128.7254 C   0  0  0  0  0  0  0  0  0  0  0  0
  180.4894  153.7914  130.0837 C   0  0  0  0  0  0  0  0  0  0  0  0
  188.2254  160.2163  135.7319 C   0  0  2  0  0  0  0  0  0  0  0  0
  188.6705  158.8434  136.1221 C   0  0  0  0  0  0  0  0  0  0  0  0
  187.9166  157.7295  135.5455 C   0  0  0  0  0  0  0  0  0  0  0  0
  187.2328  156.8254  136.3715 C   0  0  0  0  0  0  0  0  0  0  0  0
  186.5398  155.7666  135.8533 C   0  0  0  0  0  0  0  0  0  0  0  0
  186.4787  155.5357  134.4995 C   0  0  0  0  0  0  0  0  0  0  0  0
  187.1499  156.4222  133.6800 C   0  0  0  0  0  0  0  0  0  0  0  0
  187.8468  157.4862  134.1942 C   0  0  0  0  0  0  0  0  0  0  0  0
  2  1  1  1
  2  3  1  0
  3  4  1  1
  3  5  1  0
  5  6  1  6
  6  7  1  0
  7  8  2  0
  8  9  1  0
  9 10  2  0
 10 11  1  0
 11 12  2  0
  5 13  1  0
 13 14  1  0
 14 15  1  0
 15 16  2  0
 16 17  1  0
 17 18  2  0
 18 19  1  0
 19 20  2  0
 19 21  1  0
 21 22  2  0
 21 23  1  0
 23 24  1  0
 24 25  2  0
 25 26  1  0
 26 27  2  0
 27 28  1  0
 27 29  1  0
 29 30  2  0
 30 31  1  0
 31 32  2  0
 13 33  1  0
 33 34  2  0
 33 35  1  0
 35 36  1  0
 36 37  1  0
 37 38  2  0
 38 39  1  0
 39 40  2  0
 40 41  1  0
 41 42  2  0
 39 43  1  0
 43 44  2  0
 43 45  1  0
 45 46  1  0
 46 47  2  0
 47 48  1  0
 48 49  2  0
 49 50  1  0
 49 51  1  0
 51 52  2  0
 52 53  1  0
 53 54  2  0
 35 55  1  0
 55 56  1  1
 56 57  1  0
 57 58  2  0
 58 59  1  0
 59 60  2  0
 60 61  1  0
 61 62  2  0
 55  2  1  0
 62 57  1  0
 12  7  1  0
 20 15  1  0
 28 24  1  0
 42 37  1  0
 50 46  1  0
 32 26  1  0
 54 48  1  0
M  END
$$$$
