
     RDKit          3D

 62 70  0  0  0  0  0  0  0  0999 V2000
  131.6010  145.5724  133.3670 O   0  0  0  0  0  0  0  0  0  0  0  0
  130.6687  144.5375  133.5629 C   0  0  2  0  0  0  0  0  0  0  0  0
  131.0488  143.3676  132.7374 C   0  0  1  0  0  0  0  0  0  0  0  0
  132.2322  143.5289  132.0170 O   0  0  0  0  0  0  0  0  0  0  0  0
  131.0123  142.1030  133.5394 C   0  0  1  0  0  0  0  0  0  0  0  0
  131.7901  142.0848  134.7991 C   0  0  0  0  0  0  0  0  0  0  0  0
  131.8992  140.7261  135.4077 C   0  0  0  0  0  0  0  0  0  0  0  0
  131.0337  140.3854  136.4564 C   0  0  0  0  0  0  0  0  0  0  0  0
  131.1005  139.1654  137.0565 C   0  0  0  0  0  0  0  0  0  0  0  0
  132.0102  138.2121  136.6726 C   0  0  0  0  0  0  0  0  0  0  0  0
  132.8561  138.5543  135.6432 C   0  0  0  0  0  0  0  0  0  0  0  0
  132.8089  139.7935  135.0124 C   0  0  0  0  0  0  0  0  0  0  0  0
  129.6255  141.7481  133.7220 N   0  0  0  0  0  0  0  0  0  0  0  0
  129.3806  140.4027  134.1578 C   0  0  0  0  0  0  0  0  0  0  0  0
  129.3402  139.4040  133.0700 C   0  0  0  0  0  0  0  0  0  0  0  0
  130.1370  139.4117  131.9567 C   0  0  0  0  0  0  0  0  0  0  0  0
  129.9557  138.4532  130.9845 C   0  0  0  0  0  0  0  0  0  0  0  0
  128.9908  137.4826  131.0977 C   0  0  0  0  0  0  0  0  0  0  0  0
  128.1675  137.4545  132.2197 C   0  0  0  0  0  0  0  0  0  0  0  0
  128.3601  138.4118  133.1794 C   0  0  0  0  0  0  0  0  0  0  0  0
  127.1276  136.4480  132.2733 C   0  0  0  0  0  0  0  0  0  0  0  0
  126.5826  136.1252  133.3650 O   0  0  0  0  0  0  0  0  0  0  0  0
  126.7033  135.7987  131.0804 N   0  0  0  0  0  0  0  0  0  0  0  0
  127.0913  134.4501  130.8518 C   0  0  0  0  0  0  0  0  0  0  0  0
  127.0195  133.8154  129.6437 N   0  0  0  0  0  0  0  0  0  0  0  0
  127.4618  132.5641  129.7545 C   0  0  0  0  0  0  0  0  0  0  0  0
  127.8253  132.3971  131.0685 C   0  0  0  0  0  0  0  0  0  0  0  0
  127.5836  133.5730  131.7086 N   0  0  0  0  0  0  0  0  0  0  0  0
  128.3311  131.1620  131.4653 C   0  0  0  0  0  0  0  0  0  0  0  0
  128.4751  130.1112  130.5843 C   0  0  0  0  0  0  0  0  0  0  0  0
  128.0996  130.3056  129.2643 C   0  0  0  0  0  0  0  0  0  0  0  0
  127.5990  131.5223  128.8604 C   0  0  0  0  0  0  0  0  0  0  0  0
  128.4330  142.5313  133.4961 C   0  0  0  0  0  0  0  0  0  0  0  0
  127.3831  141.8864  133.2447 O   0  0  0  0  0  0  0  0  0  0  0  0
  128.3315  143.9556  133.5325 N   0  0  0  0  0  0  0  0  0  0  0  0
  126.9589  144.3712  133.8660 C   0  0  0  0  0  0  0  0  0  0  0  0
  126.9188  145.3907  134.9331 C   0  0  0  0  0  0  0  0  0  0  0  0
  126.1789  146.5554  134.7383 C   0  0  0  0  0  0  0  0  0  0  0  0
  126.1255  147.5455  135.7067 C   0  0  0  0  0  0  0  0  0  0  0  0
  126.8326  147.3407  136.8822 C   0  0  0  0  0  0  0  0  0  0  0  0
  127.5808  146.1895  137.1087 C   0  0  0  0  0  0  0  0  0  0  0  0
  127.6100  145.2163  136.1083 C   0  0  0  0  0  0  0  0  0  0  0  0
  125.3827  148.7740  135.5512 C   0  0  0  0  0  0  0  0  0  0  0  0
  124.6352  148.9219  134.5413 O   0  0  0  0  0  0  0  0  0  0  0  0
  125.4137  149.8687  136.4587 N   0  0  0  0  0  0  0  0  0  0  0  0
  126.3185  150.9641  136.3753 C   0  0  0  0  0  0  0  0  0  0  0  0
  127.3152  151.1897  137.2838 N   0  0  0  0  0  0  0  0  0  0  0  0
  128.0054  152.2868  136.9467 C   0  0  0  0  0  0  0  0  0  0  0  0
  127.4359  152.7831  135.7847 C   0  0  0  0  0  0  0  0  0  0  0  0
  126.4145  151.9403  135.4827 N   0  0  0  0  0  0  0  0  0  0  0  0
  127.9496  153.9160  135.2167 C   0  0  0  0  0  0  0  0  0  0  0  0
  129.0153  154.5855  135.7569 C   0  0  0  0  0  0  0  0  0  0  0  0
  129.5651  154.0674  136.9180 C   0  0  0  0  0  0  0  0  0  0  0  0
  129.0881  152.9449  137.5172 C   0  0  0  0  0  0  0  0  0  0  0  0
  129.2684  145.0283  133.3129 C   0  0  2  0  0  0  0  0  0  0  0  0
  129.0566  145.6297  131.9606 C   0  0  0  0  0  0  0  0  0  0  0  0
  127.8574  146.4526  131.7980 C   0  0  0  0  0  0  0  0  0  0  0  0
  126.7339  145.9535  131.1228 C   0  0  0  0  0  0  0  0  0  0  0  0
  125.6116  146.7137  130.9426 C   0  0  0  0  0  0  0  0  0  0  0  0
  125.5284  148.0026  131.4134 C   0  0  0  0  0  0  0  0  0  0  0  0
  126.6313  148.5005  132.0794 C   0  0  0  0  0  0  0  0  0  0  0  0
  127.7599  147.7426  132.2632 C   0  0  0  0  0  0  0  0  0  0  0  0
  2  1  1  6
  2  3  1  0
  3  4  1  1
  3  5  1  0
  5  6  1  1
  6  7  1  0
  7  8  2  0
  8  9  1  0
  9 10  2  0
 10 11  1  0
 11 12  2  0
  5 13  1  0
 13 14  1  0
 14 15  1  0
 15 16  2  0
 16 17  1  0
 17 18  2  0
 18 19  1  0
 19 20  2  0
 19 21  1  0
 21 22  2  0
 21 23  1  0
 23 24  1  0
 24 25  2  0
 25 26  1  0
 26 27  2  0
 27 28  1  0
 27 29  1  0
 29 30  2  0
 30 31  1  0
 31 32  2  0
 13 33  1  0
 33 34  2  0
 33 35  1  0
 35 36  1  0
 36 37  1  0
 37 38  2  0
 38 39  1  0
 39 40  2  0
 40 41  1  0
 41 42  2  0
 39 43  1  0
 43 44  2  0
 43 45  1  0
 45 46  1  0
 46 47  2  0
 47 48  1  0
 48 49  2  0
 49 50  1  0
 49 51  1  0
 51 52  2  0
 52 53  1  0
 53 54  2  0
 35 55  1  0
 55 56  1  6
 56 57  1  0
 57 58  2  0
 58 59  1  0
 59 60  2  0
 60 61  1  0
 61 62  2  0
 55  2  1  0
 62 57  1  0
 12  7  1  0
 20 15  1  0
 28 24  1  0
 42 37  1  0
 50 46  1  0
 32 26  1  0
 54 48  1  0
M  END
$$$$
