
     RDKit          3D

 47 52  0  0  0  0  0  0  0  0999 V2000
  130.0924  142.8055  134.2957 C   0  0  1  0  0  0  0  0  0  0  0  0
  129.6014  141.4260  133.8798 C   0  0  0  0  0  0  0  0  0  0  0  0
  129.5497  141.3097  132.3959 C   0  0  1  0  0  0  0  0  0  0  0  0
  128.2828  140.8027  132.0190 O   0  0  0  0  0  0  0  0  0  0  0  0
  129.7127  142.5973  131.6492 C   0  0  0  0  0  0  0  0  0  0  0  0
  128.9358  143.6548  132.3378 C   0  0  0  0  0  0  0  0  0  0  0  0
  128.0639  144.4855  131.6685 C   0  0  0  0  0  0  0  0  0  0  0  0
  127.8655  144.3524  130.3026 O   0  0  0  0  0  0  0  0  0  0  0  0
  127.3742  145.4628  132.3447 C   0  0  0  0  0  0  0  0  0  0  0  0
  127.5811  145.5852  133.7016 C   0  0  0  0  0  0  0  0  0  0  0  0
  128.4678  144.7400  134.3806 C   0  0  0  0  0  0  0  0  0  0  0  0
  128.6759  144.8649  135.7437 O   0  0  0  0  0  0  0  0  0  0  0  0
  129.1460  143.7776  133.7161 C   0  0  0  0  0  0  0  0  0  0  0  0
  126.8652  146.6107  134.4550 C   0  0  0  0  0  0  0  0  0  0  0  0
  127.0413  146.7366  135.6924 O   0  0  0  0  0  0  0  0  0  0  0  0
  125.9373  147.4877  133.7301 C   0  0  0  0  0  0  0  0  0  0  0  0
  125.7270  147.3722  132.3818 C   0  0  0  0  0  0  0  0  0  0  0  0
  124.8406  148.2074  131.6961 C   0  0  0  0  0  0  0  0  0  0  0  0
  124.1754  149.1657  132.4311 C   0  0  0  0  0  0  0  0  0  0  0  0
  124.3688  149.3052  133.7872 C   0  0  0  0  0  0  0  0  0  0  0  0
  125.2521  148.4646  134.4403 C   0  0  0  0  0  0  0  0  0  0  0  0
  125.4949  148.5481  135.7985 O   0  0  0  0  0  0  0  0  0  0  0  0
  124.8775  149.6343  136.4990 C   0  0  0  0  0  0  0  0  0  0  0  0
  126.4344  146.3531  131.6198 C   0  0  0  0  0  0  0  0  0  0  0  0
  126.2934  146.1873  130.3844 O   0  0  0  0  0  0  0  0  0  0  0  0
  130.5841  140.3346  131.9510 C   0  0  0  0  0  0  0  0  0  0  0  0
  131.2974  140.5948  130.6496 C   0  0  0  0  0  0  0  0  0  0  0  0
  130.9214  139.2802  132.5733 N   0  0  0  0  0  0  0  0  0  0  0  0
  131.0149  139.2707  133.9613 N   0  0  0  0  0  0  0  0  0  0  0  0
  132.2122  138.8628  134.5687 C   0  0  0  0  0  0  0  0  0  0  0  0
  132.3469  139.0385  135.8267 O   0  0  0  0  0  0  0  0  0  0  0  0
  133.3258  138.2458  133.8621 C   0  0  0  0  0  0  0  0  0  0  0  0
  133.1380  137.2208  132.9581 C   0  0  0  0  0  0  0  0  0  0  0  0
  134.2198  136.6417  132.2898 C   0  0  0  0  0  0  0  0  0  0  0  0
  135.5204  137.0730  132.5069 C   0  0  0  0  0  0  0  0  0  0  0  0
  135.7028  138.0941  133.4078 C   0  0  0  0  0  0  0  0  0  0  0  0
  134.6359  138.6631  134.0662 C   0  0  0  0  0  0  0  0  0  0  0  0
  130.2432  142.9338  135.6425 O   0  0  0  0  0  0  0  0  0  0  0  0
  129.1633  142.4696  136.3896 C   0  0  1  0  0  0  0  0  0  0  0  0
  127.8771  142.4669  135.6344 C   0  0  0  0  0  0  0  0  0  0  0  0
  126.8380  141.5414  136.1779 C   0  0  2  0  0  0  0  0  0  0  0  0
  126.0812  142.2586  137.2057 N   0  0  0  0  0  0  0  0  0  0  0  0
  127.3842  140.2814  136.7849 C   0  0  2  0  0  0  0  0  0  0  0  0
  126.4178  139.5635  137.4425 O   0  0  0  0  0  0  0  0  0  0  0  0
  128.5945  140.5734  137.6189 C   0  0  2  0  0  0  0  0  0  0  0  0
  128.2733  141.2045  138.9456 C   0  0  0  0  0  0  0  0  0  0  0  0
  129.5309  141.2352  136.8742 O   0  0  0  0  0  0  0  0  0  0  0  0
  1  2  1  0
  2  3  1  0
  3  4  1  1
  3  5  1  0
  5  6  1  0
  6  7  2  0
  7  8  1  0
  7  9  1  0
  9 10  2  0
 10 11  1  0
 11 12  1  0
 11 13  2  0
 10 14  1  0
 14 15  2  0
 14 16  1  0
 16 17  2  0
 17 18  1  0
 18 19  2  0
 19 20  1  0
 20 21  2  0
 21 22  1  0
 22 23  1  0
 17 24  1  0
 24 25  2  0
  3 26  1  0
 26 27  1  0
 26 28  2  3
 28 29  1  0
 29 30  1  0
 30 31  2  0
 30 32  1  0
 32 33  2  0
 33 34  1  0
 34 35  2  0
 35 36  1  0
 36 37  2  0
  1 38  1  1
 39 38  1  6
 39 40  1  0
 40 41  1  0
 41 42  1  1
 41 43  1  0
 43 44  1  1
 43 45  1  0
 45 46  1  1
 45 47  1  0
 13  1  1  0
 21 16  1  0
 37 32  1  0
 47 39  1  0
 13  6  1  0
 24  9  1  0
M  END
$$$$
