
     RDKit          3D

 47 52  0  0  0  0  0  0  0  0999 V2000
  189.6315  157.8466  127.7919 C   0  0  1  0  0  0  0  0  0  0  0  0
  188.5841  156.7707  128.0417 C   0  0  0  0  0  0  0  0  0  0  0  0
  189.1535  155.4149  127.8046 C   0  0  1  0  0  0  0  0  0  0  0  0
  188.2813  154.6929  126.9548 O   0  0  0  0  0  0  0  0  0  0  0  0
  190.4904  155.3938  127.1305 C   0  0  0  0  0  0  0  0  0  0  0  0
  190.4979  156.4018  126.0442 C   0  0  0  0  0  0  0  0  0  0  0  0
  190.9157  156.1065  124.7650 C   0  0  0  0  0  0  0  0  0  0  0  0
  191.3396  154.8281  124.4351 O   0  0  0  0  0  0  0  0  0  0  0  0
  190.9198  157.0762  123.7915 C   0  0  0  0  0  0  0  0  0  0  0  0
  190.4971  158.3427  124.1326 C   0  0  0  0  0  0  0  0  0  0  0  0
  190.0726  158.6414  125.4334 C   0  0  0  0  0  0  0  0  0  0  0  0
  189.6495  159.9147  125.7753 O   0  0  0  0  0  0  0  0  0  0  0  0
  190.0674  157.6876  126.3914 C   0  0  0  0  0  0  0  0  0  0  0  0
  190.4855  159.3995  123.1252 C   0  0  0  0  0  0  0  0  0  0  0  0
  190.1033  160.5597  123.4181 O   0  0  0  0  0  0  0  0  0  0  0  0
  190.9311  159.0708  121.7654 C   0  0  0  0  0  0  0  0  0  0  0  0
  191.3528  157.8147  121.4193 C   0  0  0  0  0  0  0  0  0  0  0  0
  191.7736  157.5055  120.1228 C   0  0  0  0  0  0  0  0  0  0  0  0
  191.7506  158.5204  119.1899 C   0  0  0  0  0  0  0  0  0  0  0  0
  191.3330  159.7927  119.5105 C   0  0  0  0  0  0  0  0  0  0  0  0
  190.9218  160.0706  120.8017 C   0  0  0  0  0  0  0  0  0  0  0  0
  190.4905  161.3241  121.1933 O   0  0  0  0  0  0  0  0  0  0  0  0
  190.8908  162.4293  120.3748 C   0  0  0  0  0  0  0  0  0  0  0  0
  191.3682  156.7525  122.4147 C   0  0  0  0  0  0  0  0  0  0  0  0
  191.7405  155.5793  122.1724 O   0  0  0  0  0  0  0  0  0  0  0  0
  189.2322  154.6897  129.1032 C   0  0  0  0  0  0  0  0  0  0  0  0
  190.5527  154.0846  129.5037 C   0  0  0  0  0  0  0  0  0  0  0  0
  188.2704  154.5230  129.9156 N   0  0  0  0  0  0  0  0  0  0  0  0
  187.2235  155.4370  129.9781 N   0  0  0  0  0  0  0  0  0  0  0  0
  186.3176  155.3752  131.0477 C   0  0  0  0  0  0  0  0  0  0  0  0
  186.5447  156.0930  132.0797 O   0  0  0  0  0  0  0  0  0  0  0  0
  185.1227  154.5435  131.0682 C   0  0  0  0  0  0  0  0  0  0  0  0
  184.2297  154.5753  132.1193 C   0  0  0  0  0  0  0  0  0  0  0  0
  183.0884  153.7693  132.1203 C   0  0  0  0  0  0  0  0  0  0  0  0
  182.8080  152.9093  131.0685 C   0  0  0  0  0  0  0  0  0  0  0  0
  183.6998  152.8809  130.0237 C   0  0  0  0  0  0  0  0  0  0  0  0
  184.8245  153.6750  130.0246 C   0  0  0  0  0  0  0  0  0  0  0  0
  189.1872  159.1003  128.0815 O   0  0  0  0  0  0  0  0  0  0  0  0
  190.1591  159.9485  128.6066 C   0  0  1  0  0  0  0  0  0  0  0  0
  189.5943  161.1618  129.2653 C   0  0  0  0  0  0  0  0  0  0  0  0
  190.5052  161.8147  130.2531 C   0  0  2  0  0  0  0  0  0  0  0  0
  191.3556  162.7633  129.5315 N   0  0  0  0  0  0  0  0  0  0  0  0
  191.3898  160.8636  131.0061 C   0  0  2  0  0  0  0  0  0  0  0  0
  192.3388  161.5189  131.7491 O   0  0  0  0  0  0  0  0  0  0  0  0
  191.9524  159.8205  130.0891 C   0  0  2  0  0  0  0  0  0  0  0  0
  193.0608  160.3278  129.2083 C   0  0  0  0  0  0  0  0  0  0  0  0
  190.9411  159.1749  129.4336 O   0  0  0  0  0  0  0  0  0  0  0  0
  1  2  1  0
  2  3  1  0
  3  4  1  6
  3  5  1  0
  5  6  1  0
  6  7  2  0
  7  8  1  0
  7  9  1  0
  9 10  2  0
 10 11  1  0
 11 12  1  0
 11 13  2  0
 10 14  1  0
 14 15  2  0
 14 16  1  0
 16 17  2  0
 17 18  1  0
 18 19  2  0
 19 20  1  0
 20 21  2  0
 21 22  1  0
 22 23  1  0
 17 24  1  0
 24 25  2  0
  3 26  1  0
 26 27  1  0
 26 28  2  3
 28 29  1  0
 29 30  1  0
 30 31  2  0
 30 32  1  0
 32 33  2  0
 33 34  1  0
 34 35  2  0
 35 36  1  0
 36 37  2  0
  1 38  1  6
 39 38  1  1
 39 40  1  0
 40 41  1  0
 41 42  1  6
 41 43  1  0
 43 44  1  6
 43 45  1  0
 45 46  1  6
 45 47  1  0
 13  1  1  0
 21 16  1  0
 37 32  1  0
 47 39  1  0
 13  6  1  0
 24  9  1  0
M  END
$$$$
