
     RDKit          3D

 47 52  0  0  0  0  0  0  0  0999 V2000
  165.3199  146.5298  126.3866 C   0  0  1  0  0  0  0  0  0  0  0  0
  164.0027  147.2860  126.2865 C   0  0  0  0  0  0  0  0  0  0  0  0
  164.2226  148.6607  125.7568 C   0  0  1  0  0  0  0  0  0  0  0  0
  163.5689  149.5886  126.6028 O   0  0  0  0  0  0  0  0  0  0  0  0
  165.6529  149.0998  125.6972 C   0  0  0  0  0  0  0  0  0  0  0  0
  166.3429  148.6621  126.9334 C   0  0  0  0  0  0  0  0  0  0  0  0
  167.1098  149.5175  127.6939 C   0  0  0  0  0  0  0  0  0  0  0  0
  167.2567  150.8483  127.3332 O   0  0  0  0  0  0  0  0  0  0  0  0
  167.7441  149.0655  128.8259 C   0  0  0  0  0  0  0  0  0  0  0  0
  167.5908  147.7407  129.1728 C   0  0  0  0  0  0  0  0  0  0  0  0
  166.8109  146.8723  128.3988 C   0  0  0  0  0  0  0  0  0  0  0  0
  166.6587  145.5411  128.7476 O   0  0  0  0  0  0  0  0  0  0  0  0
  166.1857  147.3167  127.2855 C   0  0  0  0  0  0  0  0  0  0  0  0
  168.2479  147.2235  130.3698 C   0  0  0  0  0  0  0  0  0  0  0  0
  168.1191  146.0187  130.7014 O   0  0  0  0  0  0  0  0  0  0  0  0
  169.0602  148.1461  131.1725 C   0  0  0  0  0  0  0  0  0  0  0  0
  169.2174  149.4637  130.8336 C   0  0  0  0  0  0  0  0  0  0  0  0
  169.9895  150.3392  131.6022 C   0  0  0  0  0  0  0  0  0  0  0  0
  170.5972  149.8265  132.7287 C   0  0  0  0  0  0  0  0  0  0  0  0
  170.4576  148.5058  133.0922 C   0  0  0  0  0  0  0  0  0  0  0  0
  169.6873  147.6616  132.3128 C   0  0  0  0  0  0  0  0  0  0  0  0
  169.5039  146.3259  132.6176 O   0  0  0  0  0  0  0  0  0  0  0  0
  170.4955  145.7115  133.4489 C   0  0  0  0  0  0  0  0  0  0  0  0
  168.5668  149.9912  129.6430 C   0  0  0  0  0  0  0  0  0  0  0  0
  168.6642  151.1850  129.2698 O   0  0  0  0  0  0  0  0  0  0  0  0
  163.6074  148.7617  124.4040 C   0  0  0  0  0  0  0  0  0  0  0  0
  163.5691  147.5257  123.5433 C   0  0  0  0  0  0  0  0  0  0  0  0
  163.1106  149.8140  123.8953 N   0  0  0  0  0  0  0  0  0  0  0  0
  162.5404  150.7945  124.7007 N   0  0  0  0  0  0  0  0  0  0  0  0
  163.3722  151.6464  125.4431 C   0  0  0  0  0  0  0  0  0  0  0  0
  163.3171  151.5914  126.7180 O   0  0  0  0  0  0  0  0  0  0  0  0
  164.3054  152.5999  124.8600 C   0  0  0  0  0  0  0  0  0  0  0  0
  164.6150  153.7914  125.4826 C   0  0  0  0  0  0  0  0  0  0  0  0
  165.5134  154.6935  124.9069 C   0  0  0  0  0  0  0  0  0  0  0  0
  166.1281  154.4280  123.6919 C   0  0  0  0  0  0  0  0  0  0  0  0
  165.8170  153.2402  123.0754 C   0  0  0  0  0  0  0  0  0  0  0  0
  164.9309  152.3528  123.6435 C   0  0  0  0  0  0  0  0  0  0  0  0
  165.1632  145.2364  126.7814 O   0  0  0  0  0  0  0  0  0  0  0  0
  163.9813  144.9851  127.4740 C   0  0  1  0  0  0  0  0  0  0  0  0
  164.1825  144.7888  128.9388 C   0  0  0  0  0  0  0  0  0  0  0  0
  162.9642  145.0222  129.7713 C   0  0  2  0  0  0  0  0  0  0  0  0
  162.2117  143.7682  129.8399 N   0  0  0  0  0  0  0  0  0  0  0  0
  162.0513  146.0943  129.2501 C   0  0  2  0  0  0  0  0  0  0  0  0
  160.8605  146.1344  129.9300 O   0  0  0  0  0  0  0  0  0  0  0  0
  161.8968  145.9856  127.7635 C   0  0  2  0  0  0  0  0  0  0  0  0
  160.9997  144.8581  127.3325 C   0  0  0  0  0  0  0  0  0  0  0  0
  163.1229  146.0137  127.1593 O   0  0  0  0  0  0  0  0  0  0  0  0
  1  2  1  0
  2  3  1  0
  3  4  1  1
  3  5  1  0
  5  6  1  0
  6  7  2  0
  7  8  1  0
  7  9  1  0
  9 10  2  0
 10 11  1  0
 11 12  1  0
 11 13  2  0
 10 14  1  0
 14 15  2  0
 14 16  1  0
 16 17  2  0
 17 18  1  0
 18 19  2  0
 19 20  1  0
 20 21  2  0
 21 22  1  0
 22 23  1  0
 17 24  1  0
 24 25  2  0
  3 26  1  0
 26 27  1  0
 26 28  2  3
 28 29  1  0
 29 30  1  0
 30 31  2  0
 30 32  1  0
 32 33  2  0
 33 34  1  0
 34 35  2  0
 35 36  1  0
 36 37  2  0
  1 38  1  1
 39 38  1  6
 39 40  1  0
 40 41  1  0
 41 42  1  6
 41 43  1  0
 43 44  1  1
 43 45  1  0
 45 46  1  1
 45 47  1  0
 13  1  1  0
 21 16  1  0
 37 32  1  0
 47 39  1  0
 13  6  1  0
 24  9  1  0
M  END
$$$$
