
     RDKit          3D

 47 52  0  0  0  0  0  0  0  0999 V2000
  168.8019  149.4417  127.4685 C   0  0  1  0  0  0  0  0  0  0  0  0
  167.4478  149.4849  128.1625 C   0  0  0  0  0  0  0  0  0  0  0  0
  167.3839  148.4771  129.2574 C   0  0  1  0  0  0  0  0  0  0  0  0
  166.1958  147.7205  129.1161 O   0  0  0  0  0  0  0  0  0  0  0  0
  168.5023  147.4816  129.2740 C   0  0  0  0  0  0  0  0  0  0  0  0
  168.7835  147.0503  127.8844 C   0  0  0  0  0  0  0  0  0  0  0  0
  168.8834  145.7230  127.5287 C   0  0  0  0  0  0  0  0  0  0  0  0
  168.7076  144.7213  128.4713 O   0  0  0  0  0  0  0  0  0  0  0  0
  169.1599  145.3680  126.2304 C   0  0  0  0  0  0  0  0  0  0  0  0
  169.3334  146.3730  125.3037 C   0  0  0  0  0  0  0  0  0  0  0  0
  169.2315  147.7218  125.6667 C   0  0  0  0  0  0  0  0  0  0  0  0
  169.4074  148.7308  124.7350 O   0  0  0  0  0  0  0  0  0  0  0  0
  168.9585  148.0717  126.9437 C   0  0  0  0  0  0  0  0  0  0  0  0
  169.6268  146.0354  123.9137 C   0  0  0  0  0  0  0  0  0  0  0  0
  169.7878  146.9384  123.0554 O   0  0  0  0  0  0  0  0  0  0  0  0
  169.7283  144.6173  123.5476 C   0  0  0  0  0  0  0  0  0  0  0  0
  169.5576  143.6133  124.4632 C   0  0  0  0  0  0  0  0  0  0  0  0
  169.6523  142.2643  124.1097 C   0  0  0  0  0  0  0  0  0  0  0  0
  169.9277  141.9725  122.7906 C   0  0  0  0  0  0  0  0  0  0  0  0
  170.1056  142.9617  121.8494 C   0  0  0  0  0  0  0  0  0  0  0  0
  170.0061  144.2886  122.2273 C   0  0  0  0  0  0  0  0  0  0  0  0
  170.1728  145.3321  121.3363 O   0  0  0  0  0  0  0  0  0  0  0  0
  169.2180  145.4319  120.2732 C   0  0  0  0  0  0  0  0  0  0  0  0
  169.2639  143.9372  125.8518 C   0  0  0  0  0  0  0  0  0  0  0  0
  169.0949  143.0732  126.7455 O   0  0  0  0  0  0  0  0  0  0  0  0
  167.3219  149.1874  130.5652 C   0  0  0  0  0  0  0  0  0  0  0  0
  166.0354  149.8741  130.9442 C   0  0  0  0  0  0  0  0  0  0  0  0
  168.2724  149.2773  131.4027 N   0  0  0  0  0  0  0  0  0  0  0  0
  169.3830  148.4443  131.3126 N   0  0  0  0  0  0  0  0  0  0  0  0
  170.2775  148.6015  130.2431 C   0  0  0  0  0  0  0  0  0  0  0  0
  170.1779  147.8102  129.2453 O   0  0  0  0  0  0  0  0  0  0  0  0
  171.3235  149.6128  130.1859 C   0  0  0  0  0  0  0  0  0  0  0  0
  172.5593  149.3533  129.6303 C   0  0  0  0  0  0  0  0  0  0  0  0
  173.5501  150.3374  129.5846 C   0  0  0  0  0  0  0  0  0  0  0  0
  173.3316  151.6095  130.0931 C   0  0  0  0  0  0  0  0  0  0  0  0
  172.0995  151.8636  130.6453 C   0  0  0  0  0  0  0  0  0  0  0  0
  171.1245  150.8926  130.6903 C   0  0  0  0  0  0  0  0  0  0  0  0
  168.9443  150.4052  126.5174 O   0  0  0  0  0  0  0  0  0  0  0  0
  167.8112  151.1906  126.3195 C   0  0  1  0  0  0  0  0  0  0  0  0
  166.9186  150.6821  125.2380 C   0  0  0  0  0  0  0  0  0  0  0  0
  165.5047  151.1566  125.3234 C   0  0  2  0  0  0  0  0  0  0  0  0
  165.4099  152.4366  124.6192 N   0  0  0  0  0  0  0  0  0  0  0  0
  164.9966  151.3474  126.7232 C   0  0  2  0  0  0  0  0  0  0  0  0
  163.7735  151.9681  126.7488 O   0  0  0  0  0  0  0  0  0  0  0  0
  166.0313  152.0125  127.5791 C   0  0  2  0  0  0  0  0  0  0  0  0
  166.1765  153.4855  127.3129 C   0  0  0  0  0  0  0  0  0  0  0  0
  167.1980  151.3003  127.5466 O   0  0  0  0  0  0  0  0  0  0  0  0
  1  2  1  0
  2  3  1  0
  3  4  1  6
  3  5  1  0
  5  6  1  0
  6  7  2  0
  7  8  1  0
  7  9  1  0
  9 10  2  0
 10 11  1  0
 11 12  1  0
 11 13  2  0
 10 14  1  0
 14 15  2  0
 14 16  1  0
 16 17  2  0
 17 18  1  0
 18 19  2  0
 19 20  1  0
 20 21  2  0
 21 22  1  0
 22 23  1  0
 17 24  1  0
 24 25  2  0
  3 26  1  0
 26 27  1  0
 26 28  2  3
 28 29  1  0
 29 30  1  0
 30 31  2  0
 30 32  1  0
 32 33  2  0
 33 34  1  0
 34 35  2  0
 35 36  1  0
 36 37  2  0
  1 38  1  6
 39 38  1  1
 39 40  1  0
 40 41  1  0
 41 42  1  6
 41 43  1  0
 43 44  1  6
 43 45  1  0
 45 46  1  6
 45 47  1  0
 13  1  1  0
 21 16  1  0
 37 32  1  0
 47 39  1  0
 13  6  1  0
 24  9  1  0
M  END
$$$$
