
     RDKit          3D

 47 52  0  0  0  0  0  0  0  0999 V2000
  183.7760  174.7493  149.0082 C   0  0  1  0  0  0  0  0  0  0  0  0
  184.3128  176.0710  148.4771 C   0  0  0  0  0  0  0  0  0  0  0  0
  183.5455  177.2166  149.0405 C   0  0  1  0  0  0  0  0  0  0  0  0
  183.1509  178.0698  147.9821 O   0  0  0  0  0  0  0  0  0  0  0  0
  182.2847  176.8478  149.7592 C   0  0  0  0  0  0  0  0  0  0  0  0
  181.5839  175.7919  148.9911 C   0  0  0  0  0  0  0  0  0  0  0  0
  180.2461  175.8746  148.6724 C   0  0  0  0  0  0  0  0  0  0  0  0
  179.4936  176.9755  149.0527 O   0  0  0  0  0  0  0  0  0  0  0  0
  179.6328  174.8650  147.9705 C   0  0  0  0  0  0  0  0  0  0  0  0
  180.3916  173.7762  147.5994 C   0  0  0  0  0  0  0  0  0  0  0  0
  181.7515  173.6935  147.9241 C   0  0  0  0  0  0  0  0  0  0  0  0
  182.5125  172.5983  147.5519 O   0  0  0  0  0  0  0  0  0  0  0  0
  182.3557  174.6869  148.6138 C   0  0  0  0  0  0  0  0  0  0  0  0
  179.7759  172.6840  146.8511 C   0  0  0  0  0  0  0  0  0  0  0  0
  180.4522  171.6838  146.5044 O   0  0  0  0  0  0  0  0  0  0  0  0
  178.3501  172.7858  146.5159 C   0  0  0  0  0  0  0  0  0  0  0  0
  177.5898  173.8645  146.8817 C   0  0  0  0  0  0  0  0  0  0  0  0
  176.2333  173.9586  146.5582 C   0  0  0  0  0  0  0  0  0  0  0  0
  175.6769  172.9153  145.8491 C   0  0  0  0  0  0  0  0  0  0  0  0
  176.4172  171.8181  145.4697 C   0  0  0  0  0  0  0  0  0  0  0  0
  177.7579  171.7514  145.8034 C   0  0  0  0  0  0  0  0  0  0  0  0
  178.5605  170.6811  145.4557 O   0  0  0  0  0  0  0  0  0  0  0  0
  178.0203  169.7492  144.5115 C   0  0  0  0  0  0  0  0  0  0  0  0
  178.1924  174.9600  147.6274 C   0  0  0  0  0  0  0  0  0  0  0  0
  177.5606  175.9791  147.9964 O   0  0  0  0  0  0  0  0  0  0  0  0
  184.4343  177.9939  149.9485 C   0  0  0  0  0  0  0  0  0  0  0  0
  184.2966  177.7837  151.4341 C   0  0  0  0  0  0  0  0  0  0  0  0
  185.3079  178.8395  149.5812 N   0  0  0  0  0  0  0  0  0  0  0  0
  185.8090  178.8287  148.2834 N   0  0  0  0  0  0  0  0  0  0  0  0
  185.0139  179.3128  147.2336 C   0  0  0  0  0  0  0  0  0  0  0  0
  183.7437  179.2567  147.3564 O   0  0  0  0  0  0  0  0  0  0  0  0
  185.5365  179.8820  145.9994 C   0  0  0  0  0  0  0  0  0  0  0  0
  184.7217  180.1570  144.9207 C   0  0  0  0  0  0  0  0  0  0  0  0
  185.2423  180.7034  143.7448 C   0  0  0  0  0  0  0  0  0  0  0  0
  186.5934  180.9908  143.6158 C   0  0  0  0  0  0  0  0  0  0  0  0
  187.4011  180.7155  144.6925 C   0  0  0  0  0  0  0  0  0  0  0  0
  186.8868  180.1763  145.8502 C   0  0  0  0  0  0  0  0  0  0  0  0
  184.5008  173.6744  148.5931 O   0  0  0  0  0  0  0  0  0  0  0  0
  184.4085  172.5617  149.4256 C   0  0  1  0  0  0  0  0  0  0  0  0
  185.4595  171.5362  149.1638 C   0  0  0  0  0  0  0  0  0  0  0  0
  185.7224  170.6088  150.3051 C   0  0  2  0  0  0  0  0  0  0  0  0
  184.7879  169.4862  150.2050 N   0  0  0  0  0  0  0  0  0  0  0  0
  185.5684  171.2334  151.6617 C   0  0  2  0  0  0  0  0  0  0  0  0
  185.6234  170.3030  152.6683 O   0  0  0  0  0  0  0  0  0  0  0  0
  184.3521  172.1074  151.7105 C   0  0  2  0  0  0  0  0  0  0  0  0
  183.0620  171.3392  151.7960 C   0  0  0  0  0  0  0  0  0  0  0  0
  184.4043  173.0430  150.7149 O   0  0  0  0  0  0  0  0  0  0  0  0
  1  2  1  0
  2  3  1  0
  3  4  1  6
  3  5  1  0
  5  6  1  0
  6  7  2  0
  7  8  1  0
  7  9  1  0
  9 10  2  0
 10 11  1  0
 11 12  1  0
 11 13  2  0
 10 14  1  0
 14 15  2  0
 14 16  1  0
 16 17  2  0
 17 18  1  0
 18 19  2  0
 19 20  1  0
 20 21  2  0
 21 22  1  0
 22 23  1  0
 17 24  1  0
 24 25  2  0
  3 26  1  0
 26 27  1  0
 26 28  2  3
 28 29  1  0
 29 30  1  0
 30 31  2  0
 30 32  1  0
 32 33  2  0
 33 34  1  0
 34 35  2  0
 35 36  1  0
 36 37  2  0
  1 38  1  6
 39 38  1  6
 39 40  1  0
 40 41  1  0
 41 42  1  1
 41 43  1  0
 43 44  1  1
 43 45  1  0
 45 46  1  6
 45 47  1  0
 13  1  1  0
 21 16  1  0
 37 32  1  0
 47 39  1  0
 13  6  1  0
 24  9  1  0
M  END
$$$$
