
     RDKit          3D

 47 52  0  0  0  0  0  0  0  0999 V2000
  128.7718  138.5723  134.1100 C   0  0  1  0  0  0  0  0  0  0  0  0
  129.0882  137.3347  134.9377 C   0  0  0  0  0  0  0  0  0  0  0  0
  129.2153  136.1346  134.0647 C   0  0  1  0  0  0  0  0  0  0  0  0
  128.4184  135.0929  134.5975 O   0  0  0  0  0  0  0  0  0  0  0  0
  128.7527  136.3212  132.6529 C   0  0  0  0  0  0  0  0  0  0  0  0
  127.4949  137.1048  132.6579 C   0  0  0  0  0  0  0  0  0  0  0  0
  126.3742  136.7078  131.9619 C   0  0  0  0  0  0  0  0  0  0  0  0
  126.3753  135.5313  131.2280 O   0  0  0  0  0  0  0  0  0  0  0  0
  125.2331  137.4729  131.9828 C   0  0  0  0  0  0  0  0  0  0  0  0
  125.2453  138.6402  132.7151 C   0  0  0  0  0  0  0  0  0  0  0  0
  126.3853  139.0425  133.4222 C   0  0  0  0  0  0  0  0  0  0  0  0
  126.3970  140.2162  134.1565 O   0  0  0  0  0  0  0  0  0  0  0  0
  127.5081  138.2897  133.4028 C   0  0  0  0  0  0  0  0  0  0  0  0
  124.0513  139.4792  132.7630 C   0  0  0  0  0  0  0  0  0  0  0  0
  124.0443  140.5464  133.4255 O   0  0  0  0  0  0  0  0  0  0  0  0
  122.8631  139.0434  132.0187 C   0  0  0  0  0  0  0  0  0  0  0  0
  122.8438  137.8849  131.2886 C   0  0  0  0  0  0  0  0  0  0  0  0
  121.7095  137.4724  130.5836 C   0  0  0  0  0  0  0  0  0  0  0  0
  120.5947  138.2811  130.6473 C   0  0  0  0  0  0  0  0  0  0  0  0
  120.5866  139.4517  131.3723 C   0  0  0  0  0  0  0  0  0  0  0  0
  121.7234  139.8356  132.0605 C   0  0  0  0  0  0  0  0  0  0  0  0
  121.7862  140.9969  132.8076 O   0  0  0  0  0  0  0  0  0  0  0  0
  120.9315  142.0724  132.4018 C   0  0  0  0  0  0  0  0  0  0  0  0
  124.0278  137.0397  131.2336 C   0  0  0  0  0  0  0  0  0  0  0  0
  124.0851  135.9662  130.5871 O   0  0  0  0  0  0  0  0  0  0  0  0
  130.6330  135.6776  134.0744 C   0  0  0  0  0  0  0  0  0  0  0  0
  131.2758  135.3179  132.7600 C   0  0  0  0  0  0  0  0  0  0  0  0
  131.3616  135.5522  135.1070 N   0  0  0  0  0  0  0  0  0  0  0  0
  132.5356  136.2858  135.2444 N   0  0  0  0  0  0  0  0  0  0  0  0
  132.5734  137.3644  136.1409 C   0  0  0  0  0  0  0  0  0  0  0  0
  131.5029  137.6748  136.7649 O   0  0  0  0  0  0  0  0  0  0  0  0
  133.7576  138.1656  136.4162 C   0  0  0  0  0  0  0  0  0  0  0  0
  134.9808  137.8790  135.8463 C   0  0  0  0  0  0  0  0  0  0  0  0
  136.1058  138.6602  136.1230 C   0  0  0  0  0  0  0  0  0  0  0  0
  136.0379  139.7510  136.9774 C   0  0  0  0  0  0  0  0  0  0  0  0
  134.8179  140.0329  137.5427 C   0  0  0  0  0  0  0  0  0  0  0  0
  133.7104  139.2617  137.2698 C   0  0  0  0  0  0  0  0  0  0  0  0
  128.7337  139.7136  134.8510 O   0  0  0  0  0  0  0  0  0  0  0  0
  128.9325  140.8819  134.1194 C   0  0  1  0  0  0  0  0  0  0  0  0
  127.6628  141.5587  133.7260 C   0  0  0  0  0  0  0  0  0  0  0  0
  127.8043  143.0116  133.4086 C   0  0  2  0  0  0  0  0  0  0  0  0
  128.1559  143.1369  131.9929 N   0  0  0  0  0  0  0  0  0  0  0  0
  128.8456  143.7266  134.2202 C   0  0  2  0  0  0  0  0  0  0  0  0
  129.0764  144.9980  133.7598 O   0  0  0  0  0  0  0  0  0  0  0  0
  130.0851  142.8943  134.3480 C   0  0  2  0  0  0  0  0  0  0  0  0
  130.9212  142.8639  133.0984 C   0  0  0  0  0  0  0  0  0  0  0  0
  129.7774  141.6682  134.8690 O   0  0  0  0  0  0  0  0  0  0  0  0
  1  2  1  0
  2  3  1  0
  3  4  1  1
  3  5  1  0
  5  6  1  0
  6  7  2  0
  7  8  1  0
  7  9  1  0
  9 10  2  0
 10 11  1  0
 11 12  1  0
 11 13  2  0
 10 14  1  0
 14 15  2  0
 14 16  1  0
 16 17  2  0
 17 18  1  0
 18 19  2  0
 19 20  1  0
 20 21  2  0
 21 22  1  0
 22 23  1  0
 17 24  1  0
 24 25  2  0
  3 26  1  0
 26 27  1  0
 26 28  2  3
 28 29  1  0
 29 30  1  0
 30 31  2  0
 30 32  1  0
 32 33  2  0
 33 34  1  0
 34 35  2  0
 35 36  1  0
 36 37  2  0
  1 38  1  1
 39 38  1  1
 39 40  1  0
 40 41  1  0
 41 42  1  6
 41 43  1  0
 43 44  1  6
 43 45  1  0
 45 46  1  6
 45 47  1  0
 13  1  1  0
 21 16  1  0
 37 32  1  0
 47 39  1  0
 13  6  1  0
 24  9  1  0
M  END
$$$$
