
     RDKit          3D

 47 52  0  0  0  0  0  0  0  0999 V2000
  117.3346  167.1813  144.5955 C   0  0  1  0  0  0  0  0  0  0  0  0
  117.3782  167.2190  143.0744 C   0  0  0  0  0  0  0  0  0  0  0  0
  117.2878  165.8437  142.5098 C   0  0  1  0  0  0  0  0  0  0  0  0
  118.3256  165.6669  141.5634 O   0  0  0  0  0  0  0  0  0  0  0  0
  117.4478  164.7348  143.5031 C   0  0  0  0  0  0  0  0  0  0  0  0
  118.5427  165.0816  144.4397 C   0  0  0  0  0  0  0  0  0  0  0  0
  119.5659  164.2079  144.7362 C   0  0  0  0  0  0  0  0  0  0  0  0
  119.6194  162.9531  144.1484 O   0  0  0  0  0  0  0  0  0  0  0  0
  120.5535  164.5657  145.6220 C   0  0  0  0  0  0  0  0  0  0  0  0
  120.4882  165.8150  146.1998 C   0  0  0  0  0  0  0  0  0  0  0  0
  119.4475  166.7021  145.8974 C   0  0  0  0  0  0  0  0  0  0  0  0
  119.3822  167.9565  146.4798 O   0  0  0  0  0  0  0  0  0  0  0  0
  118.4760  166.3510  145.0253 C   0  0  0  0  0  0  0  0  0  0  0  0
  121.5203  166.2321  147.1447 C   0  0  0  0  0  0  0  0  0  0  0  0
  121.4770  167.3672  147.6810 O   0  0  0  0  0  0  0  0  0  0  0  0
  122.6063  165.2924  147.4501 C   0  0  0  0  0  0  0  0  0  0  0  0
  122.6774  164.0492  146.8801 C   0  0  0  0  0  0  0  0  0  0  0  0
  123.7145  163.1588  147.1716 C   0  0  0  0  0  0  0  0  0  0  0  0
  124.6776  163.5779  148.0648 C   0  0  0  0  0  0  0  0  0  0  0  0
  124.6301  164.8215  148.6541 C   0  0  0  0  0  0  0  0  0  0  0  0
  123.5920  165.6825  148.3470 C   0  0  0  0  0  0  0  0  0  0  0  0
  123.4814  166.9443  148.9006 O   0  0  0  0  0  0  0  0  0  0  0  0
  123.8454  167.0784  150.2794 C   0  0  0  0  0  0  0  0  0  0  0  0
  121.6548  163.6222  145.9360 C   0  0  0  0  0  0  0  0  0  0  0  0
  121.6533  162.5004  145.3744 O   0  0  0  0  0  0  0  0  0  0  0  0
  115.9880  165.6982  141.7969 C   0  0  0  0  0  0  0  0  0  0  0  0
  115.7602  166.5183  140.5537 C   0  0  0  0  0  0  0  0  0  0  0  0
  115.0327  164.9397  142.1503 N   0  0  0  0  0  0  0  0  0  0  0  0
  114.9835  164.4063  143.4342 N   0  0  0  0  0  0  0  0  0  0  0  0
  113.7439  164.2725  144.0779 C   0  0  0  0  0  0  0  0  0  0  0  0
  113.6980  163.6331  145.1828 O   0  0  0  0  0  0  0  0  0  0  0  0
  112.4908  164.8159  143.5734 C   0  0  0  0  0  0  0  0  0  0  0  0
  112.4594  165.8360  142.6453 C   0  0  0  0  0  0  0  0  0  0  0  0
  111.2464  166.3440  142.1731 C   0  0  0  0  0  0  0  0  0  0  0  0
  110.0303  165.8444  142.6161 C   0  0  0  0  0  0  0  0  0  0  0  0
  110.0663  164.8285  143.5403 C   0  0  0  0  0  0  0  0  0  0  0  0
  111.2623  164.3296  144.0052 C   0  0  0  0  0  0  0  0  0  0  0  0
  117.3239  168.4203  145.1593 O   0  0  0  0  0  0  0  0  0  0  0  0
  118.0267  169.3852  144.4419 C   0  0  1  0  0  0  0  0  0  0  0  0
  119.4413  169.5426  144.8879 C   0  0  0  0  0  0  0  0  0  0  0  0
  120.3499  170.1547  143.8722 C   0  0  2  0  0  0  0  0  0  0  0  0
  120.2805  171.6100  144.0166 N   0  0  0  0  0  0  0  0  0  0  0  0
  120.0189  169.8035  142.4505 C   0  0  2  0  0  0  0  0  0  0  0  0
  120.7490  170.5405  141.5529 O   0  0  0  0  0  0  0  0  0  0  0  0
  118.5395  169.8595  142.2188 C   0  0  2  0  0  0  0  0  0  0  0  0
  117.9990  171.2591  142.1151 C   0  0  0  0  0  0  0  0  0  0  0  0
  117.8919  169.0533  143.1132 O   0  0  0  0  0  0  0  0  0  0  0  0
  1  2  1  0
  2  3  1  0
  3  4  1  6
  3  5  1  0
  5  6  1  0
  6  7  2  0
  7  8  1  0
  7  9  1  0
  9 10  2  0
 10 11  1  0
 11 12  1  0
 11 13  2  0
 10 14  1  0
 14 15  2  0
 14 16  1  0
 16 17  2  0
 17 18  1  0
 18 19  2  0
 19 20  1  0
 20 21  2  0
 21 22  1  0
 22 23  1  0
 17 24  1  0
 24 25  2  0
  3 26  1  0
 26 27  1  0
 26 28  2  3
 28 29  1  0
 29 30  1  0
 30 31  2  0
 30 32  1  0
 32 33  2  0
 33 34  1  0
 34 35  2  0
 35 36  1  0
 36 37  2  0
  1 38  1  1
 39 38  1  1
 39 40  1  0
 40 41  1  0
 41 42  1  6
 41 43  1  0
 43 44  1  6
 43 45  1  0
 45 46  1  1
 45 47  1  0
 13  1  1  0
 21 16  1  0
 37 32  1  0
 47 39  1  0
 13  6  1  0
 24  9  1  0
M  END
$$$$
