
     RDKit          3D

 47 52  0  0  0  0  0  0  0  0999 V2000
  189.4932  158.6746  124.5511 C   0  0  1  0  0  0  0  0  0  0  0  0
  190.9103  159.1837  124.3282 C   0  0  0  0  0  0  0  0  0  0  0  0
  191.6721  158.2548  123.4478 C   0  0  1  0  0  0  0  0  0  0  0  0
  192.9161  157.9619  124.0567 O   0  0  0  0  0  0  0  0  0  0  0  0
  191.0177  156.9311  123.1992 C   0  0  0  0  0  0  0  0  0  0  0  0
  190.4321  156.4377  124.4680 C   0  0  0  0  0  0  0  0  0  0  0  0
  190.6543  155.1615  124.9372 C   0  0  0  0  0  0  0  0  0  0  0  0
  191.4603  154.2783  124.2349 O   0  0  0  0  0  0  0  0  0  0  0  0
  190.0794  154.7407  126.1121 C   0  0  0  0  0  0  0  0  0  0  0  0
  189.2800  155.6277  126.7998 C   0  0  0  0  0  0  0  0  0  0  0  0
  189.0550  156.9248  126.3217 C   0  0  0  0  0  0  0  0  0  0  0  0
  188.2504  157.8146  127.0128 O   0  0  0  0  0  0  0  0  0  0  0  0
  189.6211  157.3397  125.1662 C   0  0  0  0  0  0  0  0  0  0  0  0
  188.6529  155.2179  128.0532 C   0  0  0  0  0  0  0  0  0  0  0  0
  187.9212  156.0132  128.6935 O   0  0  0  0  0  0  0  0  0  0  0  0
  188.8998  153.8561  128.5432 C   0  0  0  0  0  0  0  0  0  0  0  0
  189.6927  152.9691  127.8649 C   0  0  0  0  0  0  0  0  0  0  0  0
  189.9272  151.6744  128.3364 C   0  0  0  0  0  0  0  0  0  0  0  0
  189.3256  151.3133  129.5232 C   0  0  0  0  0  0  0  0  0  0  0  0
  188.5224  152.1841  130.2251 C   0  0  0  0  0  0  0  0  0  0  0  0
  188.3077  153.4596  129.7350 C   0  0  0  0  0  0  0  0  0  0  0  0
  187.5138  154.3849  130.3866 O   0  0  0  0  0  0  0  0  0  0  0  0
  187.3844  154.2389  131.8056 C   0  0  0  0  0  0  0  0  0  0  0  0
  190.3239  153.3662  126.6146 C   0  0  0  0  0  0  0  0  0  0  0  0
  191.0621  152.6100  125.9387 O   0  0  0  0  0  0  0  0  0  0  0  0
  191.9456  158.9334  122.1503 C   0  0  0  0  0  0  0  0  0  0  0  0
  193.1202  158.4628  121.3324 C   0  0  0  0  0  0  0  0  0  0  0  0
  191.2740  159.8953  121.6639 N   0  0  0  0  0  0  0  0  0  0  0  0
  189.8882  159.8201  121.5676 N   0  0  0  0  0  0  0  0  0  0  0  0
  189.1159  160.9609  121.8339 C   0  0  0  0  0  0  0  0  0  0  0  0
  189.1902  161.4885  122.9948 O   0  0  0  0  0  0  0  0  0  0  0  0
  188.2254  161.5956  120.8725 C   0  0  0  0  0  0  0  0  0  0  0  0
  187.3881  162.6328  121.2281 C   0  0  0  0  0  0  0  0  0  0  0  0
  186.5408  163.2290  120.2907 C   0  0  0  0  0  0  0  0  0  0  0  0
  186.5084  162.8046  118.9703 C   0  0  0  0  0  0  0  0  0  0  0  0
  187.3439  161.7716  118.6205 C   0  0  0  0  0  0  0  0  0  0  0  0
  188.1776  161.1844  119.5456 C   0  0  0  0  0  0  0  0  0  0  0  0
  188.7262  159.5338  125.2769 O   0  0  0  0  0  0  0  0  0  0  0  0
  189.4467  160.3799  126.1163 C   0  0  1  0  0  0  0  0  0  0  0  0
  188.6174  161.4621  126.7214 C   0  0  0  0  0  0  0  0  0  0  0  0
  189.1830  162.0551  127.9705 C   0  0  2  0  0  0  0  0  0  0  0  0
  190.0878  163.1415  127.5904 N   0  0  0  0  0  0  0  0  0  0  0  0
  189.9416  161.0860  128.8304 C   0  0  2  0  0  0  0  0  0  0  0  0
  190.6048  161.7133  129.8544 O   0  0  0  0  0  0  0  0  0  0  0  0
  190.8164  160.2031  127.9932 C   0  0  2  0  0  0  0  0  0  0  0  0
  192.0535  160.8901  127.4839 C   0  0  0  0  0  0  0  0  0  0  0  0
  190.0704  159.5704  127.0380 O   0  0  0  0  0  0  0  0  0  0  0  0
  1  2  1  0
  2  3  1  0
  3  4  1  1
  3  5  1  0
  5  6  1  0
  6  7  2  0
  7  8  1  0
  7  9  1  0
  9 10  2  0
 10 11  1  0
 11 12  1  0
 11 13  2  0
 10 14  1  0
 14 15  2  0
 14 16  1  0
 16 17  2  0
 17 18  1  0
 18 19  2  0
 19 20  1  0
 20 21  2  0
 21 22  1  0
 22 23  1  0
 17 24  1  0
 24 25  2  0
  3 26  1  0
 26 27  1  0
 26 28  2  3
 28 29  1  0
 29 30  1  0
 30 31  2  0
 30 32  1  0
 32 33  2  0
 33 34  1  0
 34 35  2  0
 35 36  1  0
 36 37  2  0
  1 38  1  1
 39 38  1  1
 39 40  1  0
 40 41  1  0
 41 42  1  6
 41 43  1  0
 43 44  1  1
 43 45  1  0
 45 46  1  6
 45 47  1  0
 13  1  1  0
 21 16  1  0
 37 32  1  0
 47 39  1  0
 13  6  1  0
 24  9  1  0
M  END
$$$$
