
     RDKit          3D

 47 52  0  0  0  0  0  0  0  0999 V2000
  185.0556  160.8246  135.2335 C   0  0  1  0  0  0  0  0  0  0  0  0
  183.9903  161.5712  136.0239 C   0  0  0  0  0  0  0  0  0  0  0  0
  184.0617  161.2185  137.4692 C   0  0  1  0  0  0  0  0  0  0  0  0
  182.7661  160.8708  137.9214 O   0  0  0  0  0  0  0  0  0  0  0  0
  184.9363  160.0483  137.7976 C   0  0  0  0  0  0  0  0  0  0  0  0
  184.7219  158.9878  136.7850 C   0  0  0  0  0  0  0  0  0  0  0  0
  184.4713  157.6774  137.1291 C   0  0  0  0  0  0  0  0  0  0  0  0
  184.3947  157.2962  138.4601 O   0  0  0  0  0  0  0  0  0  0  0  0
  184.2927  156.7231  136.1567 C   0  0  0  0  0  0  0  0  0  0  0  0
  184.3722  157.1148  134.8379 C   0  0  0  0  0  0  0  0  0  0  0  0
  184.6270  158.4472  134.4896 C   0  0  0  0  0  0  0  0  0  0  0  0
  184.7081  158.8393  133.1642 O   0  0  0  0  0  0  0  0  0  0  0  0
  184.8019  159.3868  135.4458 C   0  0  0  0  0  0  0  0  0  0  0  0
  184.1863  156.1299  133.7762 C   0  0  0  0  0  0  0  0  0  0  0  0
  184.2552  156.4689  132.5686 O   0  0  0  0  0  0  0  0  0  0  0  0
  183.9176  154.7375  134.1565 C   0  0  0  0  0  0  0  0  0  0  0  0
  183.8376  154.3410  135.4649 C   0  0  0  0  0  0  0  0  0  0  0  0
  183.5789  153.0148  135.8225 C   0  0  0  0  0  0  0  0  0  0  0  0
  183.4048  152.1052  134.8011 C   0  0  0  0  0  0  0  0  0  0  0  0
  183.4814  152.4758  133.4772 C   0  0  0  0  0  0  0  0  0  0  0  0
  183.7386  153.7955  133.1521 C   0  0  0  0  0  0  0  0  0  0  0  0
  183.8292  154.2375  131.8455 O   0  0  0  0  0  0  0  0  0  0  0  0
  182.8171  153.7838  130.9391 C   0  0  0  0  0  0  0  0  0  0  0  0
  184.0204  155.3138  136.5324 C   0  0  0  0  0  0  0  0  0  0  0  0
  183.9613  155.0257  137.7519 O   0  0  0  0  0  0  0  0  0  0  0  0
  184.5095  162.4137  138.2371 C   0  0  0  0  0  0  0  0  0  0  0  0
  183.7608  163.7070  138.0452 C   0  0  0  0  0  0  0  0  0  0  0  0
  185.4870  162.4474  139.0471 N   0  0  0  0  0  0  0  0  0  0  0  0
  186.4551  161.4484  139.0382 N   0  0  0  0  0  0  0  0  0  0  0  0
  187.4197  161.4325  138.0193 C   0  0  0  0  0  0  0  0  0  0  0  0
  187.2153  160.6911  136.9994 O   0  0  0  0  0  0  0  0  0  0  0  0
  188.6514  162.2088  138.0390 C   0  0  0  0  0  0  0  0  0  0  0  0
  189.2621  162.5780  139.2195 C   0  0  0  0  0  0  0  0  0  0  0  0
  190.4442  163.3231  139.2175 C   0  0  0  0  0  0  0  0  0  0  0  0
  191.0489  163.7189  138.0333 C   0  0  0  0  0  0  0  0  0  0  0  0
  190.4374  163.3489  136.8599 C   0  0  0  0  0  0  0  0  0  0  0  0
  189.2722  162.6155  136.8636 C   0  0  0  0  0  0  0  0  0  0  0  0
  185.0913  161.1797  133.9198 O   0  0  0  0  0  0  0  0  0  0  0  0
  183.8913  161.6873  133.4279 C   0  0  1  0  0  0  0  0  0  0  0  0
  183.9782  162.1477  132.0118 C   0  0  0  0  0  0  0  0  0  0  0  0
  182.6678  162.2146  131.2975 C   0  0  2  0  0  0  0  0  0  0  0  0
  182.0770  163.5300  131.5510 N   0  0  0  0  0  0  0  0  0  0  0  0
  181.6793  161.1635  131.7126 C   0  0  2  0  0  0  0  0  0  0  0  0
  180.4348  161.3856  131.1799 O   0  0  0  0  0  0  0  0  0  0  0  0
  181.6791  160.9911  133.2012 C   0  0  2  0  0  0  0  0  0  0  0  0
  180.9761  162.0994  133.9354 C   0  0  0  0  0  0  0  0  0  0  0  0
  182.9428  160.7138  133.6432 O   0  0  0  0  0  0  0  0  0  0  0  0
  1  2  1  0
  2  3  1  0
  3  4  1  1
  3  5  1  0
  5  6  1  0
  6  7  2  0
  7  8  1  0
  7  9  1  0
  9 10  2  0
 10 11  1  0
 11 12  1  0
 11 13  2  0
 10 14  1  0
 14 15  2  0
 14 16  1  0
 16 17  2  0
 17 18  1  0
 18 19  2  0
 19 20  1  0
 20 21  2  0
 21 22  1  0
 22 23  1  0
 17 24  1  0
 24 25  2  0
  3 26  1  0
 26 27  1  0
 26 28  2  3
 28 29  1  0
 29 30  1  0
 30 31  2  0
 30 32  1  0
 32 33  2  0
 33 34  1  0
 34 35  2  0
 35 36  1  0
 36 37  2  0
  1 38  1  6
 39 38  1  6
 39 40  1  0
 40 41  1  0
 41 42  1  1
 41 43  1  0
 43 44  1  1
 43 45  1  0
 45 46  1  1
 45 47  1  0
 13  1  1  0
 21 16  1  0
 37 32  1  0
 47 39  1  0
 13  6  1  0
 24  9  1  0
M  END
$$$$
