
     RDKit          3D

 47 52  0  0  0  0  0  0  0  0999 V2000
  126.7254  144.9449  136.4196 C   0  0  1  0  0  0  0  0  0  0  0  0
  127.7134  145.7121  137.2869 C   0  0  0  0  0  0  0  0  0  0  0  0
  128.2062  146.9258  136.5778 C   0  0  1  0  0  0  0  0  0  0  0  0
  129.6199  146.9549  136.6458 O   0  0  0  0  0  0  0  0  0  0  0  0
  127.8660  146.9955  135.1213 C   0  0  0  0  0  0  0  0  0  0  0  0
  128.0561  145.6554  134.5178 C   0  0  0  0  0  0  0  0  0  0  0  0
  128.7777  145.4620  133.3602 C   0  0  0  0  0  0  0  0  0  0  0  0
  129.3766  146.5311  132.7112 O   0  0  0  0  0  0  0  0  0  0  0  0
  128.9166  144.2031  132.8273 C   0  0  0  0  0  0  0  0  0  0  0  0
  128.3158  143.1495  133.4814 C   0  0  0  0  0  0  0  0  0  0  0  0
  127.5826  143.3476  134.6581 C   0  0  0  0  0  0  0  0  0  0  0  0
  126.9782  142.2884  135.3136 O   0  0  0  0  0  0  0  0  0  0  0  0
  127.4463  144.5858  135.1834 C   0  0  0  0  0  0  0  0  0  0  0  0
  128.4423  141.7966  132.9468 C   0  0  0  0  0  0  0  0  0  0  0  0
  127.9016  140.8242  133.5298 O   0  0  0  0  0  0  0  0  0  0  0  0
  129.2159  141.6041  131.7139 C   0  0  0  0  0  0  0  0  0  0  0  0
  129.8153  142.6464  131.0583 C   0  0  0  0  0  0  0  0  0  0  0  0
  130.5532  142.4582  129.8863 C   0  0  0  0  0  0  0  0  0  0  0  0
  130.6595  141.1710  129.4039 C   0  0  0  0  0  0  0  0  0  0  0  0
  130.0659  140.1047  130.0417 C   0  0  0  0  0  0  0  0  0  0  0  0
  129.3415  140.3201  131.2002 C   0  0  0  0  0  0  0  0  0  0  0  0
  128.7197  139.2974  131.8918 O   0  0  0  0  0  0  0  0  0  0  0  0
  128.1378  138.2490  131.1083 C   0  0  0  0  0  0  0  0  0  0  0  0
  129.6969  143.9996  131.5818 C   0  0  0  0  0  0  0  0  0  0  0  0
  130.2176  145.0027  131.0373 O   0  0  0  0  0  0  0  0  0  0  0  0
  127.6890  148.1363  137.2747 C   0  0  0  0  0  0  0  0  0  0  0  0
  127.8822  148.2388  138.7655 C   0  0  0  0  0  0  0  0  0  0  0  0
  127.0814  149.1043  136.7210 N   0  0  0  0  0  0  0  0  0  0  0  0
  127.0936  149.2561  135.3382 N   0  0  0  0  0  0  0  0  0  0  0  0
  126.0840  150.0081  134.7184 C   0  0  0  0  0  0  0  0  0  0  0  0
  124.8830  149.5767  134.7739 O   0  0  0  0  0  0  0  0  0  0  0  0
  126.3072  151.2596  134.0085 C   0  0  0  0  0  0  0  0  0  0  0  0
  125.4602  151.6925  133.0092 C   0  0  0  0  0  0  0  0  0  0  0  0
  125.6913  152.8968  132.3397 C   0  0  0  0  0  0  0  0  0  0  0  0
  126.7767  153.7025  132.6521 C   0  0  0  0  0  0  0  0  0  0  0  0
  127.6175  153.2678  133.6478 C   0  0  0  0  0  0  0  0  0  0  0  0
  127.3888  152.0804  134.3060 C   0  0  0  0  0  0  0  0  0  0  0  0
  126.1766  143.8743  137.0566 O   0  0  0  0  0  0  0  0  0  0  0  0
  126.3955  143.8483  138.4317 C   0  0  1  0  0  0  0  0  0  0  0  0
  125.1555  144.0579  139.2338 C   0  0  0  0  0  0  0  0  0  0  0  0
  125.2277  143.5486  140.6363 C   0  0  2  0  0  0  0  0  0  0  0  0
  125.7927  144.6059  141.4769 N   0  0  0  0  0  0  0  0  0  0  0  0
  126.0621  142.3119  140.8063 C   0  0  2  0  0  0  0  0  0  0  0  0
  126.2603  141.9999  142.1273 O   0  0  0  0  0  0  0  0  0  0  0  0
  127.3281  142.4104  140.0107 C   0  0  2  0  0  0  0  0  0  0  0  0
  128.3554  143.3214  140.6243 C   0  0  0  0  0  0  0  0  0  0  0  0
  127.0409  142.6623  138.6979 O   0  0  0  0  0  0  0  0  0  0  0  0
  1  2  1  0
  2  3  1  0
  3  4  1  6
  3  5  1  0
  5  6  1  0
  6  7  2  0
  7  8  1  0
  7  9  1  0
  9 10  2  0
 10 11  1  0
 11 12  1  0
 11 13  2  0
 10 14  1  0
 14 15  2  0
 14 16  1  0
 16 17  2  0
 17 18  1  0
 18 19  2  0
 19 20  1  0
 20 21  2  0
 21 22  1  0
 22 23  1  0
 17 24  1  0
 24 25  2  0
  3 26  1  0
 26 27  1  0
 26 28  2  3
 28 29  1  0
 29 30  1  0
 30 31  2  0
 30 32  1  0
 32 33  2  0
 33 34  1  0
 34 35  2  0
 35 36  1  0
 36 37  2  0
  1 38  1  1
 39 38  1  6
 39 40  1  0
 40 41  1  0
 41 42  1  1
 41 43  1  0
 43 44  1  1
 43 45  1  0
 45 46  1  1
 45 47  1  0
 13  1  1  0
 21 16  1  0
 37 32  1  0
 47 39  1  0
 13  6  1  0
 24  9  1  0
M  END
$$$$
