
     RDKit          3D

 47 52  0  0  0  0  0  0  0  0999 V2000
  128.9952  145.7883  136.2208 C   0  0  1  0  0  0  0  0  0  0  0  0
  127.6583  145.7271  136.9462 C   0  0  0  0  0  0  0  0  0  0  0  0
  127.4664  144.3965  137.5874 C   0  0  1  0  0  0  0  0  0  0  0  0
  126.1910  143.8954  137.2322 O   0  0  0  0  0  0  0  0  0  0  0  0
  128.4479  143.3430  137.1763 C   0  0  0  0  0  0  0  0  0  0  0  0
  128.6705  143.4366  135.7142 C   0  0  0  0  0  0  0  0  0  0  0  0
  128.5990  142.3392  134.8842 C   0  0  0  0  0  0  0  0  0  0  0  0
  128.2968  141.0848  135.3920 O   0  0  0  0  0  0  0  0  0  0  0  0
  128.8269  142.4692  133.5354 C   0  0  0  0  0  0  0  0  0  0  0  0
  129.1271  143.7209  133.0436 C   0  0  0  0  0  0  0  0  0  0  0  0
  129.1994  144.8356  133.8885 C   0  0  0  0  0  0  0  0  0  0  0  0
  129.5026  146.0925  133.3934 O   0  0  0  0  0  0  0  0  0  0  0  0
  128.9744  144.7086  135.2155 C   0  0  0  0  0  0  0  0  0  0  0  0
  129.3739  143.8993  131.6156 C   0  0  0  0  0  0  0  0  0  0  0  0
  129.6488  145.0331  131.1497 O   0  0  0  0  0  0  0  0  0  0  0  0
  129.2923  142.7222  130.7419 C   0  0  0  0  0  0  0  0  0  0  0  0
  128.9949  141.4752  131.2236 C   0  0  0  0  0  0  0  0  0  0  0  0
  128.9156  140.3577  130.3879 C   0  0  0  0  0  0  0  0  0  0  0  0
  129.1503  140.5536  129.0435 C   0  0  0  0  0  0  0  0  0  0  0  0
  129.4530  141.7958  128.5322 C   0  0  0  0  0  0  0  0  0  0  0  0
  129.5247  142.8844  129.3825 C   0  0  0  0  0  0  0  0  0  0  0  0
  129.8233  144.1589  128.9385 O   0  0  0  0  0  0  0  0  0  0  0  0
  130.7306  144.2619  127.8349 C   0  0  0  0  0  0  0  0  0  0  0  0
  128.7462  141.2848  132.6453 C   0  0  0  0  0  0  0  0  0  0  0  0
  128.4683  140.1745  133.1590 O   0  0  0  0  0  0  0  0  0  0  0  0
  127.4970  144.5640  139.0671 C   0  0  0  0  0  0  0  0  0  0  0  0
  128.6822  144.0209  139.8225 C   0  0  0  0  0  0  0  0  0  0  0  0
  126.5967  145.1245  139.7658 N   0  0  0  0  0  0  0  0  0  0  0  0
  125.2527  144.8218  139.5725 N   0  0  0  0  0  0  0  0  0  0  0  0
  124.4370  144.5656  140.6850 C   0  0  0  0  0  0  0  0  0  0  0  0
  124.9337  144.7188  141.8519 O   0  0  0  0  0  0  0  0  0  0  0  0
  123.0489  144.1330  140.6066 C   0  0  0  0  0  0  0  0  0  0  0  0
  122.7071  142.8149  140.3856 C   0  0  0  0  0  0  0  0  0  0  0  0
  121.3688  142.4195  140.3136 C   0  0  0  0  0  0  0  0  0  0  0  0
  120.3348  143.3325  140.4619 C   0  0  0  0  0  0  0  0  0  0  0  0
  120.6797  144.6440  140.6819 C   0  0  0  0  0  0  0  0  0  0  0  0
  121.9988  145.0322  140.7516 C   0  0  0  0  0  0  0  0  0  0  0  0
  129.2593  147.0147  135.6925 O   0  0  0  0  0  0  0  0  0  0  0  0
  128.1274  147.7744  135.4070 C   0  0  1  0  0  0  0  0  0  0  0  0
  127.6608  148.5994  136.5588 C   0  0  0  0  0  0  0  0  0  0  0  0
  126.8110  149.7691  136.1829 C   0  0  2  0  0  0  0  0  0  0  0  0
  125.4199  149.3180  136.1118 N   0  0  0  0  0  0  0  0  0  0  0  0
  127.1710  150.4025  134.8700 C   0  0  2  0  0  0  0  0  0  0  0  0
  126.2467  151.3365  134.4763 O   0  0  0  0  0  0  0  0  0  0  0  0
  127.4545  149.3570  133.8346 C   0  0  2  0  0  0  0  0  0  0  0  0
  126.2180  148.6892  133.2991 C   0  0  0  0  0  0  0  0  0  0  0  0
  128.4266  148.5048  134.2797 O   0  0  0  0  0  0  0  0  0  0  0  0
  1  2  1  0
  2  3  1  0
  3  4  1  1
  3  5  1  0
  5  6  1  0
  6  7  2  0
  7  8  1  0
  7  9  1  0
  9 10  2  0
 10 11  1  0
 11 12  1  0
 11 13  2  0
 10 14  1  0
 14 15  2  0
 14 16  1  0
 16 17  2  0
 17 18  1  0
 18 19  2  0
 19 20  1  0
 20 21  2  0
 21 22  1  0
 22 23  1  0
 17 24  1  0
 24 25  2  0
  3 26  1  0
 26 27  1  0
 26 28  2  3
 28 29  1  0
 29 30  1  0
 30 31  2  0
 30 32  1  0
 32 33  2  0
 33 34  1  0
 34 35  2  0
 35 36  1  0
 36 37  2  0
  1 38  1  6
 39 38  1  1
 39 40  1  0
 40 41  1  0
 41 42  1  6
 41 43  1  0
 43 44  1  6
 43 45  1  0
 45 46  1  1
 45 47  1  0
 13  1  1  0
 21 16  1  0
 37 32  1  0
 47 39  1  0
 13  6  1  0
 24  9  1  0
M  END
$$$$
