
     RDKit          3D

 47 52  0  0  0  0  0  0  0  0999 V2000
  102.0138  166.1730  157.9594 C   0  0  1  0  0  0  0  0  0  0  0  0
  102.4174  164.7237  158.1910 C   0  0  0  0  0  0  0  0  0  0  0  0
  102.7535  164.4922  159.6234 C   0  0  1  0  0  0  0  0  0  0  0  0
  104.0038  163.8329  159.7009 O   0  0  0  0  0  0  0  0  0  0  0  0
  102.8928  165.7303  160.4539 C   0  0  0  0  0  0  0  0  0  0  0  0
  103.6308  166.7522  159.6747 C   0  0  0  0  0  0  0  0  0  0  0  0
  104.7089  167.4380  160.1900 C   0  0  0  0  0  0  0  0  0  0  0  0
  105.1621  167.1838  161.4756 O   0  0  0  0  0  0  0  0  0  0  0  0
  105.3554  168.3883  159.4369 C   0  0  0  0  0  0  0  0  0  0  0  0
  104.8946  168.6320  158.1613 C   0  0  0  0  0  0  0  0  0  0  0  0
  103.7985  167.9341  157.6388 C   0  0  0  0  0  0  0  0  0  0  0  0
  103.3355  168.1809  156.3575 O   0  0  0  0  0  0  0  0  0  0  0  0
  103.1626  166.9984  158.3789 C   0  0  0  0  0  0  0  0  0  0  0  0
  105.5565  169.6332  157.3297 C   0  0  0  0  0  0  0  0  0  0  0  0
  105.1503  169.8684  156.1646 O   0  0  0  0  0  0  0  0  0  0  0  0
  106.7057  170.3550  157.8901 C   0  0  0  0  0  0  0  0  0  0  0  0
  107.1688  170.1184  159.1569 C   0  0  0  0  0  0  0  0  0  0  0  0
  108.2649  170.8060  159.6855 C   0  0  0  0  0  0  0  0  0  0  0  0
  108.8736  171.7442  158.8791 C   0  0  0  0  0  0  0  0  0  0  0  0
  108.4281  172.0036  157.6022 C   0  0  0  0  0  0  0  0  0  0  0  0
  107.3410  171.3079  157.1047 C   0  0  0  0  0  0  0  0  0  0  0  0
  106.8405  171.5168  155.8332 O   0  0  0  0  0  0  0  0  0  0  0  0
  107.1334  172.7794  155.2236 C   0  0  0  0  0  0  0  0  0  0  0  0
  106.5177  169.1222  159.9953 C   0  0  0  0  0  0  0  0  0  0  0  0
  106.8848  168.8510  161.1639 O   0  0  0  0  0  0  0  0  0  0  0  0
  101.7253  163.5964  160.2226 C   0  0  0  0  0  0  0  0  0  0  0  0
  100.6435  163.0518  159.3263 C   0  0  0  0  0  0  0  0  0  0  0  0
  101.6691  163.2490  161.4429 N   0  0  0  0  0  0  0  0  0  0  0  0
  101.3022  164.1608  162.4275 N   0  0  0  0  0  0  0  0  0  0  0  0
  102.2467  164.5568  163.3865 C   0  0  0  0  0  0  0  0  0  0  0  0
  102.8471  165.6727  163.2248 O   0  0  0  0  0  0  0  0  0  0  0  0
  102.5969  163.7803  164.5674 C   0  0  0  0  0  0  0  0  0  0  0  0
  103.8459  163.8586  165.1479 C   0  0  0  0  0  0  0  0  0  0  0  0
  104.1628  163.1053  166.2812 C   0  0  0  0  0  0  0  0  0  0  0  0
  103.2378  162.2528  166.8661 C   0  0  0  0  0  0  0  0  0  0  0  0
  101.9951  162.1779  166.2850 C   0  0  0  0  0  0  0  0  0  0  0  0
  101.6848  162.9202  165.1677 C   0  0  0  0  0  0  0  0  0  0  0  0
  101.6103  166.4163  156.6822 O   0  0  0  0  0  0  0  0  0  0  0  0
  101.7182  165.3229  155.8263 C   0  0  1  0  0  0  0  0  0  0  0  0
  100.4000  164.7933  155.3716 C   0  0  0  0  0  0  0  0  0  0  0  0
  100.4514  163.9959  154.1094 C   0  0  2  0  0  0  0  0  0  0  0  0
  100.7412  162.6044  154.4606 N   0  0  0  0  0  0  0  0  0  0  0  0
  101.4834  164.4600  153.1225 C   0  0  2  0  0  0  0  0  0  0  0  0
  101.6283  163.5847  152.0762 O   0  0  0  0  0  0  0  0  0  0  0  0
  102.7697  164.7943  153.8150 C   0  0  2  0  0  0  0  0  0  0  0  0
  103.5576  163.5853  154.2379 C   0  0  0  0  0  0  0  0  0  0  0  0
  102.5481  165.7153  154.8010 O   0  0  0  0  0  0  0  0  0  0  0  0
  1  2  1  0
  2  3  1  0
  3  4  1  6
  3  5  1  0
  5  6  1  0
  6  7  2  0
  7  8  1  0
  7  9  1  0
  9 10  2  0
 10 11  1  0
 11 12  1  0
 11 13  2  0
 10 14  1  0
 14 15  2  0
 14 16  1  0
 16 17  2  0
 17 18  1  0
 18 19  2  0
 19 20  1  0
 20 21  2  0
 21 22  1  0
 22 23  1  0
 17 24  1  0
 24 25  2  0
  3 26  1  0
 26 27  1  0
 26 28  2  3
 28 29  1  0
 29 30  1  0
 30 31  2  0
 30 32  1  0
 32 33  2  0
 33 34  1  0
 34 35  2  0
 35 36  1  0
 36 37  2  0
  1 38  1  6
 39 38  1  1
 39 40  1  0
 40 41  1  0
 41 42  1  1
 41 43  1  0
 43 44  1  6
 43 45  1  0
 45 46  1  1
 45 47  1  0
 13  1  1  0
 21 16  1  0
 37 32  1  0
 47 39  1  0
 13  6  1  0
 24  9  1  0
M  END
$$$$
