
     RDKit          3D

 47 52  0  0  0  0  0  0  0  0999 V2000
  166.0910  149.1951  128.7012 C   0  0  1  0  0  0  0  0  0  0  0  0
  164.8285  149.0353  127.8660 C   0  0  0  0  0  0  0  0  0  0  0  0
  164.2386  147.6808  128.0553 C   0  0  1  0  0  0  0  0  0  0  0  0
  163.9801  147.1111  126.7854 O   0  0  0  0  0  0  0  0  0  0  0  0
  165.1127  146.6992  128.7727 C   0  0  0  0  0  0  0  0  0  0  0  0
  166.5023  146.8405  128.2779 C   0  0  0  0  0  0  0  0  0  0  0  0
  167.2555  145.7606  127.8720 C   0  0  0  0  0  0  0  0  0  0  0  0
  166.7280  144.4785  127.8981 O   0  0  0  0  0  0  0  0  0  0  0  0
  168.5459  145.9359  127.4335 C   0  0  0  0  0  0  0  0  0  0  0  0
  169.0585  147.2148  127.4134 C   0  0  0  0  0  0  0  0  0  0  0  0
  168.2917  148.3117  127.8262 C   0  0  0  0  0  0  0  0  0  0  0  0
  168.8083  149.5961  127.8069 O   0  0  0  0  0  0  0  0  0  0  0  0
  167.0217  148.1401  128.2569 C   0  0  0  0  0  0  0  0  0  0  0  0
  170.4252  147.4415  126.9522 C   0  0  0  0  0  0  0  0  0  0  0  0
  170.9089  148.6005  126.9270 O   0  0  0  0  0  0  0  0  0  0  0  0
  171.2162  146.2824  126.5204 C   0  0  0  0  0  0  0  0  0  0  0  0
  170.7135  145.0086  126.5380 C   0  0  0  0  0  0  0  0  0  0  0  0
  171.4691  143.9083  126.1234 C   0  0  0  0  0  0  0  0  0  0  0  0
  172.7556  144.1497  125.6902 C   0  0  0  0  0  0  0  0  0  0  0  0
  173.2870  145.4197  125.6634 C   0  0  0  0  0  0  0  0  0  0  0  0
  172.5164  146.4904  126.0795 C   0  0  0  0  0  0  0  0  0  0  0  0
  172.9850  147.7908  126.0794 O   0  0  0  0  0  0  0  0  0  0  0  0
  173.9963  148.1126  127.0413 C   0  0  0  0  0  0  0  0  0  0  0  0
  169.3521  144.7700  126.9950 C   0  0  0  0  0  0  0  0  0  0  0  0
  168.8237  143.6330  127.0391 O   0  0  0  0  0  0  0  0  0  0  0  0
  162.9389  147.8151  128.7704 C   0  0  0  0  0  0  0  0  0  0  0  0
  162.9621  147.9835  130.2674 C   0  0  0  0  0  0  0  0  0  0  0  0
  161.7912  147.7917  128.2272 N   0  0  0  0  0  0  0  0  0  0  0  0
  161.6465  147.4777  126.8797 N   0  0  0  0  0  0  0  0  0  0  0  0
  161.9722  148.4376  125.9094 C   0  0  0  0  0  0  0  0  0  0  0  0
  161.8896  149.6729  126.2239 O   0  0  0  0  0  0  0  0  0  0  0  0
  162.4031  148.1255  124.5541 C   0  0  0  0  0  0  0  0  0  0  0  0
  162.7128  146.8386  124.1653 C   0  0  0  0  0  0  0  0  0  0  0  0
  163.1245  146.5593  122.8596 C   0  0  0  0  0  0  0  0  0  0  0  0
  163.2369  147.5604  121.9057 C   0  0  0  0  0  0  0  0  0  0  0  0
  162.9274  148.8404  122.2972 C   0  0  0  0  0  0  0  0  0  0  0  0
  162.5228  149.1142  123.5844 C   0  0  0  0  0  0  0  0  0  0  0  0
  166.6201  150.4475  128.6331 O   0  0  0  0  0  0  0  0  0  0  0  0
  165.8259  151.3721  127.9593 C   0  0  1  0  0  0  0  0  0  0  0  0
  166.6107  152.3589  127.1624 C   0  0  0  0  0  0  0  0  0  0  0  0
  165.8470  153.0169  126.0599 C   0  0  2  0  0  0  0  0  0  0  0  0
  165.1743  154.1947  126.6109 N   0  0  0  0  0  0  0  0  0  0  0  0
  164.8139  152.1417  125.4111 C   0  0  2  0  0  0  0  0  0  0  0  0
  164.0098  152.8434  124.5491 O   0  0  0  0  0  0  0  0  0  0  0  0
  164.0587  151.3568  126.4404 C   0  0  2  0  0  0  0  0  0  0  0  0
  163.0499  152.1738  127.1997 C   0  0  0  0  0  0  0  0  0  0  0  0
  164.9269  150.6409  127.2169 O   0  0  0  0  0  0  0  0  0  0  0  0
  1  2  1  0
  2  3  1  0
  3  4  1  6
  3  5  1  0
  5  6  1  0
  6  7  2  0
  7  8  1  0
  7  9  1  0
  9 10  2  0
 10 11  1  0
 11 12  1  0
 11 13  2  0
 10 14  1  0
 14 15  2  0
 14 16  1  0
 16 17  2  0
 17 18  1  0
 18 19  2  0
 19 20  1  0
 20 21  2  0
 21 22  1  0
 22 23  1  0
 17 24  1  0
 24 25  2  0
  3 26  1  0
 26 27  1  0
 26 28  2  3
 28 29  1  0
 29 30  1  0
 30 31  2  0
 30 32  1  0
 32 33  2  0
 33 34  1  0
 34 35  2  0
 35 36  1  0
 36 37  2  0
  1 38  1  6
 39 38  1  6
 39 40  1  0
 40 41  1  0
 41 42  1  1
 41 43  1  0
 43 44  1  1
 43 45  1  0
 45 46  1  1
 45 47  1  0
 13  1  1  0
 21 16  1  0
 37 32  1  0
 47 39  1  0
 13  6  1  0
 24  9  1  0
M  END
$$$$
