
     RDKit          3D

 47 52  0  0  0  0  0  0  0  0999 V2000
  117.9386  167.2913  141.9889 C   0  0  1  0  0  0  0  0  0  0  0  0
  116.9400  166.2237  141.5647 C   0  0  0  0  0  0  0  0  0  0  0  0
  115.5784  166.5411  142.0782 C   0  0  1  0  0  0  0  0  0  0  0  0
  115.0511  165.3948  142.7201 O   0  0  0  0  0  0  0  0  0  0  0  0
  115.5199  167.6404  143.0932 C   0  0  0  0  0  0  0  0  0  0  0  0
  116.6512  167.4843  144.0377 C   0  0  0  0  0  0  0  0  0  0  0  0
  116.4815  167.5114  145.4047 C   0  0  0  0  0  0  0  0  0  0  0  0
  115.2212  167.6746  145.9595 O   0  0  0  0  0  0  0  0  0  0  0  0
  117.5611  167.3771  146.2441 C   0  0  0  0  0  0  0  0  0  0  0  0
  118.8081  167.2166  145.6800 C   0  0  0  0  0  0  0  0  0  0  0  0
  118.9790  167.1892  144.2902 C   0  0  0  0  0  0  0  0  0  0  0  0
  120.2327  167.0294  143.7247 O   0  0  0  0  0  0  0  0  0  0  0  0
  117.9172  167.3204  143.4638 C   0  0  0  0  0  0  0  0  0  0  0  0
  119.9794  167.0689  146.5392 C   0  0  0  0  0  0  0  0  0  0  0  0
  121.1238  166.9215  146.0426 O   0  0  0  0  0  0  0  0  0  0  0  0
  119.7844  167.0973  147.9941 C   0  0  0  0  0  0  0  0  0  0  0  0
  118.5483  167.2568  148.5616 C   0  0  0  0  0  0  0  0  0  0  0  0
  118.3668  167.2804  149.9473 C   0  0  0  0  0  0  0  0  0  0  0  0
  119.4884  167.1364  150.7361 C   0  0  0  0  0  0  0  0  0  0  0  0
  120.7433  166.9760  150.1925 C   0  0  0  0  0  0  0  0  0  0  0  0
  120.8936  166.9563  148.8176 C   0  0  0  0  0  0  0  0  0  0  0  0
  122.1223  166.7994  148.2040 O   0  0  0  0  0  0  0  0  0  0  0  0
  123.2681  167.2677  148.9247 C   0  0  0  0  0  0  0  0  0  0  0  0
  117.3728  167.4043  147.7155 C   0  0  0  0  0  0  0  0  0  0  0  0
  116.2102  167.5539  148.1623 O   0  0  0  0  0  0  0  0  0  0  0  0
  114.6920  166.8701  140.9273 C   0  0  0  0  0  0  0  0  0  0  0  0
  114.7937  166.0252  139.6839 C   0  0  0  0  0  0  0  0  0  0  0  0
  113.8489  167.8192  140.8920 N   0  0  0  0  0  0  0  0  0  0  0  0
  114.2516  169.1203  140.6088 N   0  0  0  0  0  0  0  0  0  0  0  0
  113.2988  170.1503  140.6004 C   0  0  0  0  0  0  0  0  0  0  0  0
  113.7050  171.3538  140.4646 O   0  0  0  0  0  0  0  0  0  0  0  0
  111.8636  169.9459  140.7362 C   0  0  0  0  0  0  0  0  0  0  0  0
  110.9854  171.0020  140.8649 C   0  0  0  0  0  0  0  0  0  0  0  0
  109.6112  170.7852  140.9940 C   0  0  0  0  0  0  0  0  0  0  0  0
  109.0770  169.5049  140.9971 C   0  0  0  0  0  0  0  0  0  0  0  0
  109.9550  168.4561  140.8685 C   0  0  0  0  0  0  0  0  0  0  0  0
  111.3090  168.6713  140.7423 C   0  0  0  0  0  0  0  0  0  0  0  0
  119.1815  167.0950  141.4694 O   0  0  0  0  0  0  0  0  0  0  0  0
  119.6092  165.7697  141.4851 C   0  0  1  0  0  0  0  0  0  0  0  0
  119.7907  165.2212  142.8602 C   0  0  0  0  0  0  0  0  0  0  0  0
  119.7457  163.7304  142.9468 C   0  0  2  0  0  0  0  0  0  0  0  0
  121.0962  163.2188  142.7065 N   0  0  0  0  0  0  0  0  0  0  0  0
  118.8115  163.0789  141.9684 C   0  0  2  0  0  0  0  0  0  0  0  0
  118.9520  161.7145  141.9499 O   0  0  0  0  0  0  0  0  0  0  0  0
  118.9248  163.7180  140.6177 C   0  0  2  0  0  0  0  0  0  0  0  0
  120.1655  163.3210  139.8662 C   0  0  0  0  0  0  0  0  0  0  0  0
  118.7125  165.0651  140.7148 O   0  0  0  0  0  0  0  0  0  0  0  0
  1  2  1  0
  2  3  1  0
  3  4  1  1
  3  5  1  0
  5  6  1  0
  6  7  2  0
  7  8  1  0
  7  9  1  0
  9 10  2  0
 10 11  1  0
 11 12  1  0
 11 13  2  0
 10 14  1  0
 14 15  2  0
 14 16  1  0
 16 17  2  0
 17 18  1  0
 18 19  2  0
 19 20  1  0
 20 21  2  0
 21 22  1  0
 22 23  1  0
 17 24  1  0
 24 25  2  0
  3 26  1  0
 26 27  1  0
 26 28  2  3
 28 29  1  0
 29 30  1  0
 30 31  2  0
 30 32  1  0
 32 33  2  0
 33 34  1  0
 34 35  2  0
 35 36  1  0
 36 37  2  0
  1 38  1  1
 39 38  1  1
 39 40  1  0
 40 41  1  0
 41 42  1  6
 41 43  1  0
 43 44  1  6
 43 45  1  0
 45 46  1  1
 45 47  1  0
 13  1  1  0
 21 16  1  0
 37 32  1  0
 47 39  1  0
 13  6  1  0
 24  9  1  0
M  END
$$$$
