
     RDKit          3D

 47 52  0  0  0  0  0  0  0  0999 V2000
  159.4961  164.2670  137.9196 C   0  0  1  0  0  0  0  0  0  0  0  0
  159.6115  162.7769  138.2084 C   0  0  0  0  0  0  0  0  0  0  0  0
  159.0296  161.9771  137.0948 C   0  0  1  0  0  0  0  0  0  0  0  0
  158.1364  161.0206  137.6344 O   0  0  0  0  0  0  0  0  0  0  0  0
  158.2349  162.7594  136.0954 C   0  0  0  0  0  0  0  0  0  0  0  0
  157.3981  163.7490  136.8140 C   0  0  0  0  0  0  0  0  0  0  0  0
  156.0497  163.8922  136.5702 C   0  0  0  0  0  0  0  0  0  0  0  0
  155.4092  163.0918  135.6364 O   0  0  0  0  0  0  0  0  0  0  0  0
  155.3143  164.8332  137.2499 C   0  0  0  0  0  0  0  0  0  0  0  0
  155.9630  165.6227  138.1745 C   0  0  0  0  0  0  0  0  0  0  0  0
  157.3338  165.4760  138.4212 C   0  0  0  0  0  0  0  0  0  0  0  0
  157.9847  166.2709  139.3494 O   0  0  0  0  0  0  0  0  0  0  0  0
  158.0576  164.5498  137.7536 C   0  0  0  0  0  0  0  0  0  0  0  0
  155.2152  166.6327  138.9179 C   0  0  0  0  0  0  0  0  0  0  0  0
  155.7899  167.3612  139.7646 O   0  0  0  0  0  0  0  0  0  0  0  0
  153.7784  166.7733  138.6502 C   0  0  0  0  0  0  0  0  0  0  0  0
  153.1273  165.9925  137.7327 C   0  0  0  0  0  0  0  0  0  0  0  0
  151.7588  166.1279  137.4829 C   0  0  0  0  0  0  0  0  0  0  0  0
  151.0754  167.0870  138.2000 C   0  0  0  0  0  0  0  0  0  0  0  0
  151.7049  167.8868  139.1273 C   0  0  0  0  0  0  0  0  0  0  0  0
  153.0604  167.7309  139.3543 C   0  0  0  0  0  0  0  0  0  0  0  0
  153.7563  168.4985  140.2694 O   0  0  0  0  0  0  0  0  0  0  0  0
  153.1188  169.6985  140.7226 C   0  0  0  0  0  0  0  0  0  0  0  0
  153.8619  164.9818  136.9857 C   0  0  0  0  0  0  0  0  0  0  0  0
  153.3345  164.2304  136.1306 O   0  0  0  0  0  0  0  0  0  0  0  0
  160.1252  161.2421  136.4034 C   0  0  0  0  0  0  0  0  0  0  0  0
  160.3730  159.8058  136.7856 C   0  0  0  0  0  0  0  0  0  0  0  0
  160.8899  161.7241  135.5114 N   0  0  0  0  0  0  0  0  0  0  0  0
  160.6830  161.4397  134.1654 N   0  0  0  0  0  0  0  0  0  0  0  0
  159.5518  161.9585  133.5173 C   0  0  0  0  0  0  0  0  0  0  0  0
  159.2664  161.5242  132.3504 O   0  0  0  0  0  0  0  0  0  0  0  0
  158.6680  162.9674  134.0840 C   0  0  0  0  0  0  0  0  0  0  0  0
  157.6356  162.6365  134.9371 C   0  0  0  0  0  0  0  0  0  0  0  0
  156.7982  163.6195  135.4708 C   0  0  0  0  0  0  0  0  0  0  0  0
  156.9714  164.9619  135.1664 C   0  0  0  0  0  0  0  0  0  0  0  0
  158.0009  165.2870  134.3167 C   0  0  0  0  0  0  0  0  0  0  0  0
  158.8245  164.3171  133.7908 C   0  0  0  0  0  0  0  0  0  0  0  0
  160.0941  165.0412  138.8663 O   0  0  0  0  0  0  0  0  0  0  0  0
  159.2110  165.7944  139.6360 C   0  0  1  0  0  0  0  0  0  0  0  0
  159.8105  167.0538  140.1646 C   0  0  0  0  0  0  0  0  0  0  0  0
  158.8185  168.1054  140.5407 C   0  0  2  0  0  0  0  0  0  0  0  0
  158.4107  167.8725  141.9275 N   0  0  0  0  0  0  0  0  0  0  0  0
  157.5864  168.1328  139.6831 C   0  0  2  0  0  0  0  0  0  0  0  0
  156.6258  168.9736  140.1854 O   0  0  0  0  0  0  0  0  0  0  0  0
  157.0943  166.7433  139.4137 C   0  0  2  0  0  0  0  0  0  0  0  0
  156.3971  166.1133  140.5878 C   0  0  0  0  0  0  0  0  0  0  0  0
  158.0916  165.9897  138.8597 O   0  0  0  0  0  0  0  0  0  0  0  0
  1  2  1  0
  2  3  1  0
  3  4  1  1
  3  5  1  0
  5  6  1  0
  6  7  2  0
  7  8  1  0
  7  9  1  0
  9 10  2  0
 10 11  1  0
 11 12  1  0
 11 13  2  0
 10 14  1  0
 14 15  2  0
 14 16  1  0
 16 17  2  0
 17 18  1  0
 18 19  2  0
 19 20  1  0
 20 21  2  0
 21 22  1  0
 22 23  1  0
 17 24  1  0
 24 25  2  0
  3 26  1  0
 26 27  1  0
 26 28  2  3
 28 29  1  0
 29 30  1  0
 30 31  2  0
 30 32  1  0
 32 33  2  0
 33 34  1  0
 34 35  2  0
 35 36  1  0
 36 37  2  0
  1 38  1  1
 39 38  1  6
 39 40  1  0
 40 41  1  0
 41 42  1  1
 41 43  1  0
 43 44  1  1
 43 45  1  0
 45 46  1  1
 45 47  1  0
 13  1  1  0
 21 16  1  0
 37 32  1  0
 47 39  1  0
 13  6  1  0
 24  9  1  0
M  END
$$$$
