
     RDKit          3D

 43 50  0  0  0  0  0  0  0  0999 V2000
  202.8714  141.4636  130.9191 C   0  0  2  0  0  0  0  0  0  0  0  0
  203.0763  142.3979  132.1183 C   0  0  0  0  0  0  0  0  0  0  0  0
  202.6111  143.7178  131.5515 C   0  0  0  0  0  0  0  0  0  0  0  0
  201.7394  143.3841  130.3472 C   0  0  0  0  0  0  0  0  0  0  0  0
  201.6128  141.9387  130.4112 N   0  0  0  0  0  0  0  0  0  0  0  0
  200.5283  141.0977  130.0701 C   0  0  0  0  0  0  0  0  0  0  0  0
  199.6668  141.5184  129.2596 O   0  0  0  0  0  0  0  0  0  0  0  0
  200.4678  139.7440  130.6984 C   0  0  2  0  0  0  0  0  0  0  0  0
  199.8356  139.9172  132.0631 C   0  0  0  0  0  0  0  0  0  0  0  0
  198.4966  139.2971  132.1329 C   0  0  0  0  0  0  0  0  0  0  0  0
  197.8851  139.1725  133.3544 C   0  0  0  0  0  0  0  0  0  0  0  0
  196.6376  138.6039  133.4876 C   0  0  0  0  0  0  0  0  0  0  0  0
  195.9935  138.1525  132.3728 C   0  0  0  0  0  0  0  0  0  0  0  0
  196.5917  138.2659  131.1147 C   0  0  0  0  0  0  0  0  0  0  0  0
  197.8451  138.8414  131.0126 C   0  0  0  0  0  0  0  0  0  0  0  0
  201.8122  139.2433  130.7792 N   0  0  0  0  0  0  0  0  0  0  0  0
  202.4300  138.0055  130.3924 C   0  0  0  0  0  0  0  0  0  0  0  0
  201.8357  136.9036  130.2039 O   0  0  0  0  0  0  0  0  0  0  0  0
  203.8747  138.3337  130.2760 C   0  0  2  0  0  0  0  0  0  0  0  0
  204.1120  138.7684  128.8442 C   0  0  0  0  0  0  0  0  0  0  0  0
  204.7294  137.2318  130.6546 N   0  0  0  0  0  0  0  0  0  0  0  0
  204.3587  136.2056  131.5338 C   0  0  0  0  0  0  0  0  0  0  0  0
  203.9736  135.1151  131.0387 O   0  0  0  0  0  0  0  0  0  0  0  0
  204.3924  136.3263  133.0125 C   0  0  1  0  0  0  0  0  0  0  0  0
  203.4425  135.4089  133.7136 C   0  0  0  0  0  0  0  0  0  0  0  0
  203.8574  134.0483  133.7461 N   0  0  0  0  0  0  0  0  0  0  0  0
  203.1588  133.4061  134.8687 C   0  0  0  0  0  0  0  0  0  0  0  0
  205.2983  133.8661  133.8543 C   0  0  2  0  0  0  0  0  0  0  0  0
  205.6234  132.5337  134.4233 C   0  0  0  0  0  0  0  0  0  0  0  0
  207.0483  132.4358  134.7950 C   0  0  0  0  0  0  0  0  0  0  0  0
  207.9712  131.4067  135.0203 C   0  0  0  0  0  0  0  0  0  0  0  0
  209.1633  131.9617  135.3556 N   0  0  0  0  0  0  0  0  0  0  0  0
  209.0853  133.3050  135.3660 C   0  0  0  0  0  0  0  0  0  0  0  0
  209.9359  134.3591  135.6223 C   0  0  0  0  0  0  0  0  0  0  0  0
  209.4695  135.6450  135.5275 C   0  0  0  0  0  0  0  0  0  0  0  0
  208.1358  135.9130  135.1723 C   0  0  0  0  0  0  0  0  0  0  0  0
  207.3046  134.8479  134.9207 C   0  0  0  0  0  0  0  0  0  0  0  0
  207.7665  133.5775  135.0155 C   0  0  0  0  0  0  0  0  0  0  0  0
  205.8855  135.0564  134.5249 C   0  0  1  0  0  0  0  0  0  0  0  0
  205.7948  136.2280  133.5329 C   0  0  0  0  0  0  0  0  0  0  0  0
  204.0583  139.4177  131.0858 O   0  0  0  0  0  0  0  0  0  0  0  0
  202.8624  140.0287  131.3375 C   0  0  1  0  0  0  0  0  0  0  0  0
  202.6848  140.0159  132.7413 O   0  0  0  0  0  0  0  0  0  0  0  0
  1  2  1  1
  2  3  1  0
  3  4  1  0
  4  5  1  0
  5  6  1  0
  6  7  2  0
  6  8  1  0
  8  9  1  1
  9 10  1  0
 10 11  2  0
 11 12  1  0
 12 13  2  0
 13 14  1  0
 14 15  2  0
  8 16  1  0
 16 17  1  0
 17 18  2  0
 17 19  1  0
 19 20  1  6
 19 21  1  0
 21 22  1  0
 22 23  2  0
 24 22  1  6
 24 25  1  0
 25 26  1  0
 26 27  1  0
 26 28  1  0
 28 29  1  1
 29 30  1  0
 30 31  2  0
 31 32  1  0
 32 33  1  0
 33 34  2  0
 34 35  1  0
 35 36  2  0
 36 37  1  0
 37 38  2  0
 37 39  1  0
 39 40  1  6
 19 41  1  0
 41 42  1  0
 42 43  1  1
  5  1  1  0
 15 10  1  0
 42 16  1  0
 42  1  1  0
 40 24  1  0
 39 28  1  0
 38 30  1  0
 38 33  1  0
M  END
$$$$
