
     RDKit          3D

 43 50  0  0  0  0  0  0  0  0999 V2000
  164.0499  150.6472  126.1934 C   0  0  2  0  0  0  0  0  0  0  0  0
  163.4853  150.3777  124.7928 C   0  0  0  0  0  0  0  0  0  0  0  0
  162.1239  151.0234  124.8901 C   0  0  0  0  0  0  0  0  0  0  0  0
  162.1971  152.0052  126.0530 C   0  0  0  0  0  0  0  0  0  0  0  0
  163.6033  151.9958  126.4159 N   0  0  0  0  0  0  0  0  0  0  0  0
  164.4338  153.0364  126.8927 C   0  0  0  0  0  0  0  0  0  0  0  0
  163.9034  154.0253  127.4555 O   0  0  0  0  0  0  0  0  0  0  0  0
  165.9084  152.8996  126.6986 C   0  0  2  0  0  0  0  0  0  0  0  0
  166.2154  153.3703  125.2927 C   0  0  0  0  0  0  0  0  0  0  0  0
  165.9874  154.8214  125.1352 C   0  0  0  0  0  0  0  0  0  0  0  0
  165.0165  155.2507  124.2666 C   0  0  0  0  0  0  0  0  0  0  0  0
  164.7545  156.5893  124.0742 C   0  0  0  0  0  0  0  0  0  0  0  0
  165.4815  157.5124  124.7674 C   0  0  0  0  0  0  0  0  0  0  0  0
  166.4774  157.1047  125.6593 C   0  0  0  0  0  0  0  0  0  0  0  0
  166.7176  155.7537  125.8315 C   0  0  0  0  0  0  0  0  0  0  0  0
  166.2452  151.5169  126.8970 N   0  0  0  0  0  0  0  0  0  0  0  0
  167.2341  150.8459  127.6941 C   0  0  0  0  0  0  0  0  0  0  0  0
  168.2974  151.3602  128.1500 O   0  0  0  0  0  0  0  0  0  0  0  0
  166.7146  149.4612  127.8393 C   0  0  2  0  0  0  0  0  0  0  0  0
  165.8586  149.4424  129.0892 C   0  0  0  0  0  0  0  0  0  0  0  0
  167.7676  148.4729  127.8909 N   0  0  0  0  0  0  0  0  0  0  0  0
  168.9821  148.5704  127.1990 C   0  0  0  0  0  0  0  0  0  0  0  0
  169.8710  149.3250  127.6712 O   0  0  0  0  0  0  0  0  0  0  0  0
  169.2840  147.8384  125.9440 C   0  0  1  0  0  0  0  0  0  0  0  0
  170.5106  148.3265  125.2419 C   0  0  0  0  0  0  0  0  0  0  0  0
  171.7330  147.9268  125.8505 N   0  0  0  0  0  0  0  0  0  0  0  0
  172.7773  147.9972  124.8185 C   0  0  0  0  0  0  0  0  0  0  0  0
  171.6911  146.6058  126.4623 C   0  0  2  0  0  0  0  0  0  0  0  0
  173.0550  146.0299  126.5753 C   0  0  0  0  0  0  0  0  0  0  0  0
  173.0115  144.5987  126.9328 C   0  0  0  0  0  0  0  0  0  0  0  0
  173.8898  143.6653  127.4973 C   0  0  0  0  0  0  0  0  0  0  0  0
  173.2595  142.4654  127.5650 N   0  0  0  0  0  0  0  0  0  0  0  0
  172.0085  142.5483  127.0765 C   0  0  0  0  0  0  0  0  0  0  0  0
  170.9427  141.6934  126.8925 C   0  0  0  0  0  0  0  0  0  0  0  0
  169.7818  142.1671  126.3376 C   0  0  0  0  0  0  0  0  0  0  0  0
  169.6541  143.5126  125.9506 C   0  0  0  0  0  0  0  0  0  0  0  0
  170.7283  144.3481  126.1429 C   0  0  0  0  0  0  0  0  0  0  0  0
  171.8754  143.8786  126.6908 C   0  0  0  0  0  0  0  0  0  0  0  0
  170.6597  145.7872  125.7714 C   0  0  1  0  0  0  0  0  0  0  0  0
  169.2871  146.3560  126.1679 C   0  0  0  0  0  0  0  0  0  0  0  0
  165.8978  149.2741  126.7612 O   0  0  0  0  0  0  0  0  0  0  0  0
  165.5346  150.4785  126.2277 C   0  0  1  0  0  0  0  0  0  0  0  0
  165.9747  150.4786  124.8828 O   0  0  0  0  0  0  0  0  0  0  0  0
  1  2  1  6
  2  3  1  0
  3  4  1  0
  4  5  1  0
  5  6  1  0
  6  7  2  0
  6  8  1  0
  8  9  1  6
  9 10  1  0
 10 11  2  0
 11 12  1  0
 12 13  2  0
 13 14  1  0
 14 15  2  0
  8 16  1  0
 16 17  1  0
 17 18  2  0
 17 19  1  0
 19 20  1  1
 19 21  1  0
 21 22  1  0
 22 23  2  0
 24 22  1  1
 24 25  1  0
 25 26  1  0
 26 27  1  0
 26 28  1  0
 28 29  1  6
 29 30  1  0
 30 31  2  0
 31 32  1  0
 32 33  1  0
 33 34  2  0
 34 35  1  0
 35 36  2  0
 36 37  1  0
 37 38  2  0
 37 39  1  0
 39 40  1  1
 19 41  1  0
 41 42  1  0
 42 43  1  6
  5  1  1  0
 15 10  1  0
 42 16  1  0
 42  1  1  0
 40 24  1  0
 39 28  1  0
 38 30  1  0
 38 33  1  0
M  END
$$$$
