
     RDKit          3D

 43 50  0  0  0  0  0  0  0  0999 V2000
  192.8607  161.4964  128.7826 C   0  0  2  0  0  0  0  0  0  0  0  0
  193.2777  162.8636  128.2260 C   0  0  0  0  0  0  0  0  0  0  0  0
  193.4835  162.5414  126.7653 C   0  0  0  0  0  0  0  0  0  0  0  0
  192.7177  161.2514  126.4986 C   0  0  0  0  0  0  0  0  0  0  0  0
  191.9930  161.0259  127.7368 N   0  0  0  0  0  0  0  0  0  0  0  0
  190.7116  160.4714  127.9608 C   0  0  0  0  0  0  0  0  0  0  0  0
  190.2180  159.7147  127.0891 O   0  0  0  0  0  0  0  0  0  0  0  0
  190.0107  160.8199  129.2329 C   0  0  2  0  0  0  0  0  0  0  0  0
  189.3358  162.1574  129.0145 C   0  0  0  0  0  0  0  0  0  0  0  0
  188.4705  162.5304  130.1524 C   0  0  0  0  0  0  0  0  0  0  0  0
  188.9297  163.4471  131.0635 C   0  0  0  0  0  0  0  0  0  0  0  0
  188.1726  163.8373  132.1460 C   0  0  0  0  0  0  0  0  0  0  0  0
  186.9317  163.2962  132.3153 C   0  0  0  0  0  0  0  0  0  0  0  0
  186.4371  162.3598  131.4032 C   0  0  0  0  0  0  0  0  0  0  0  0
  187.2206  161.9876  130.3261 C   0  0  0  0  0  0  0  0  0  0  0  0
  191.0008  160.8716  130.2730 N   0  0  0  0  0  0  0  0  0  0  0  0
  191.0912  160.2837  131.5806 C   0  0  0  0  0  0  0  0  0  0  0  0
  190.1219  159.8534  132.2721 O   0  0  0  0  0  0  0  0  0  0  0  0
  192.5427  160.3089  131.8978 C   0  0  2  0  0  0  0  0  0  0  0  0
  193.1246  159.0036  131.3950 C   0  0  0  0  0  0  0  0  0  0  0  0
  192.8027  160.5096  133.3051 N   0  0  0  0  0  0  0  0  0  0  0  0
  191.9064  161.1086  134.2002 C   0  0  0  0  0  0  0  0  0  0  0  0
  191.7322  162.3517  134.1172 O   0  0  0  0  0  0  0  0  0  0  0  0
  191.1507  160.3669  135.2398 C   0  0  1  0  0  0  0  0  0  0  0  0
  191.5945  160.6661  136.6359 C   0  0  0  0  0  0  0  0  0  0  0  0
  191.1670  161.9306  137.1289 N   0  0  0  0  0  0  0  0  0  0  0  0
  191.1945  161.8582  138.5968 C   0  0  0  0  0  0  0  0  0  0  0  0
  189.8554  162.3453  136.6506 C   0  0  2  0  0  0  0  0  0  0  0  0
  189.2417  163.3329  137.5742 C   0  0  0  0  0  0  0  0  0  0  0  0
  187.8169  163.5558  137.2609 C   0  0  0  0  0  0  0  0  0  0  0  0
  186.8654  164.5525  137.5112 C   0  0  0  0  0  0  0  0  0  0  0  0
  185.6852  164.1708  136.9608 N   0  0  0  0  0  0  0  0  0  0  0  0
  185.7983  162.9736  136.3570 C   0  0  0  0  0  0  0  0  0  0  0  0
  184.9724  162.1174  135.6603 C   0  0  0  0  0  0  0  0  0  0  0  0
  185.4726  160.9347  135.1795 C   0  0  0  0  0  0  0  0  0  0  0  0
  186.8164  160.5747  135.3824 C   0  0  0  0  0  0  0  0  0  0  0  0
  187.6227  161.4426  136.0792 C   0  0  0  0  0  0  0  0  0  0  0  0
  187.1270  162.6108  136.5545 C   0  0  0  0  0  0  0  0  0  0  0  0
  189.0586  161.1345  136.3186 C   0  0  1  0  0  0  0  0  0  0  0  0
  189.6717  160.5208  135.0488 C   0  0  0  0  0  0  0  0  0  0  0  0
  193.0538  161.3229  131.1395 O   0  0  0  0  0  0  0  0  0  0  0  0
  192.1998  161.6261  130.1169 C   0  0  1  0  0  0  0  0  0  0  0  0
  191.8512  162.9893  130.2668 O   0  0  0  0  0  0  0  0  0  0  0  0
  1  2  1  6
  2  3  1  0
  3  4  1  0
  4  5  1  0
  5  6  1  0
  6  7  2  0
  6  8  1  0
  8  9  1  6
  9 10  1  0
 10 11  2  0
 11 12  1  0
 12 13  2  0
 13 14  1  0
 14 15  2  0
  8 16  1  0
 16 17  1  0
 17 18  2  0
 17 19  1  0
 19 20  1  6
 19 21  1  0
 21 22  1  0
 22 23  2  0
 24 22  1  6
 24 25  1  0
 25 26  1  0
 26 27  1  0
 26 28  1  0
 28 29  1  1
 29 30  1  0
 30 31  2  0
 31 32  1  0
 32 33  1  0
 33 34  2  0
 34 35  1  0
 35 36  2  0
 36 37  1  0
 37 38  2  0
 37 39  1  0
 39 40  1  6
 19 41  1  0
 41 42  1  0
 42 43  1  1
  5  1  1  0
 15 10  1  0
 42 16  1  0
 42  1  1  0
 40 24  1  0
 39 28  1  0
 38 30  1  0
 38 33  1  0
M  END
$$$$
