
     RDKit          3D

 43 50  0  0  0  0  0  0  0  0999 V2000
  144.4728  166.9911  135.5109 C   0  0  2  0  0  0  0  0  0  0  0  0
  142.9812  166.8434  135.1850 C   0  0  0  0  0  0  0  0  0  0  0  0
  142.4001  166.5872  136.5549 C   0  0  0  0  0  0  0  0  0  0  0  0
  143.4274  167.0960  137.5585 C   0  0  0  0  0  0  0  0  0  0  0  0
  144.4150  167.7590  136.7254 N   0  0  0  0  0  0  0  0  0  0  0  0
  145.1971  168.9111  136.9717 C   0  0  0  0  0  0  0  0  0  0  0  0
  145.4096  169.2565  138.1598 O   0  0  0  0  0  0  0  0  0  0  0  0
  145.7313  169.6592  135.7945 C   0  0  2  0  0  0  0  0  0  0  0  0
  144.6266  170.5764  135.3143 C   0  0  0  0  0  0  0  0  0  0  0  0
  145.1485  171.8901  134.8850 C   0  0  0  0  0  0  0  0  0  0  0  0
  144.3332  172.9896  134.9730 C   0  0  0  0  0  0  0  0  0  0  0  0
  144.7591  174.2422  134.5893 C   0  0  0  0  0  0  0  0  0  0  0  0
  146.0272  174.3917  134.1087 C   0  0  0  0  0  0  0  0  0  0  0  0
  146.8806  173.2895  134.0076 C   0  0  0  0  0  0  0  0  0  0  0  0
  146.4247  172.0444  134.4006 C   0  0  0  0  0  0  0  0  0  0  0  0
  146.1081  168.6920  134.8010 N   0  0  0  0  0  0  0  0  0  0  0  0
  147.2995  168.4857  134.0254 C   0  0  0  0  0  0  0  0  0  0  0  0
  148.1899  169.3526  133.7834 O   0  0  0  0  0  0  0  0  0  0  0  0
  147.2227  167.0638  133.6006 C   0  0  2  0  0  0  0  0  0  0  0  0
  147.9156  166.2475  134.6726 C   0  0  0  0  0  0  0  0  0  0  0  0
  147.7987  166.8398  132.2944 N   0  0  0  0  0  0  0  0  0  0  0  0
  147.4928  167.5921  131.1526 C   0  0  0  0  0  0  0  0  0  0  0  0
  146.7428  167.0720  130.2868 O   0  0  0  0  0  0  0  0  0  0  0  0
  147.9993  168.9643  130.9019 C   0  0  1  0  0  0  0  0  0  0  0  0
  149.2934  169.0016  130.1541 C   0  0  0  0  0  0  0  0  0  0  0  0
  149.1766  168.7165  128.7650 N   0  0  0  0  0  0  0  0  0  0  0  0
  150.3519  169.2974  128.1003 C   0  0  0  0  0  0  0  0  0  0  0  0
  147.9426  169.1971  128.1588 C   0  0  2  0  0  0  0  0  0  0  0  0
  148.1050  169.3734  126.6934 C   0  0  0  0  0  0  0  0  0  0  0  0
  146.9699  170.1122  126.1071 C   0  0  0  0  0  0  0  0  0  0  0  0
  146.4044  170.2634  124.8348 C   0  0  0  0  0  0  0  0  0  0  0  0
  145.3481  171.1100  124.9296 N   0  0  0  0  0  0  0  0  0  0  0  0
  145.1785  171.5314  126.1962 C   0  0  0  0  0  0  0  0  0  0  0  0
  144.3115  172.3644  126.8706 C   0  0  0  0  0  0  0  0  0  0  0  0
  144.4651  172.5536  128.2199 C   0  0  0  0  0  0  0  0  0  0  0  0
  145.4927  171.9129  128.9341 C   0  0  0  0  0  0  0  0  0  0  0  0
  146.3459  171.0865  128.2428 C   0  0  0  0  0  0  0  0  0  0  0  0
  146.1935  170.9009  126.9092 C   0  0  0  0  0  0  0  0  0  0  0  0
  147.4466  170.3639  128.9359 C   0  0  1  0  0  0  0  0  0  0  0  0
  146.9408  169.8291  130.2861 C   0  0  0  0  0  0  0  0  0  0  0  0
  145.8922  166.7575  133.6259 O   0  0  0  0  0  0  0  0  0  0  0  0
  145.2137  167.6584  134.3973 C   0  0  1  0  0  0  0  0  0  0  0  0
  144.2402  168.2582  133.5637 O   0  0  0  0  0  0  0  0  0  0  0  0
  1  2  1  6
  2  3  1  0
  3  4  1  0
  4  5  1  0
  5  6  1  0
  6  7  2  0
  6  8  1  0
  8  9  1  6
  9 10  1  0
 10 11  2  0
 11 12  1  0
 12 13  2  0
 13 14  1  0
 14 15  2  0
  8 16  1  0
 16 17  1  0
 17 18  2  0
 17 19  1  0
 19 20  1  1
 19 21  1  0
 21 22  1  0
 22 23  2  0
 24 22  1  6
 24 25  1  0
 25 26  1  0
 26 27  1  0
 26 28  1  0
 28 29  1  6
 29 30  1  0
 30 31  2  0
 31 32  1  0
 32 33  1  0
 33 34  2  0
 34 35  1  0
 35 36  2  0
 36 37  1  0
 37 38  2  0
 37 39  1  0
 39 40  1  1
 19 41  1  0
 41 42  1  0
 42 43  1  6
  5  1  1  0
 15 10  1  0
 42 16  1  0
 42  1  1  0
 40 24  1  0
 39 28  1  0
 38 30  1  0
 38 33  1  0
M  END
$$$$
