
     RDKit          3D

 43 50  0  0  0  0  0  0  0  0999 V2000
  162.9300  146.8968  125.9544 C   0  0  2  0  0  0  0  0  0  0  0  0
  163.0805  146.3470  124.5303 C   0  0  0  0  0  0  0  0  0  0  0  0
  161.6459  146.0357  124.1770 C   0  0  0  0  0  0  0  0  0  0  0  0
  160.7825  146.8558  125.1276 C   0  0  0  0  0  0  0  0  0  0  0  0
  161.7441  147.6984  125.8165 N   0  0  0  0  0  0  0  0  0  0  0  0
  161.6274  149.0271  126.2862 C   0  0  0  0  0  0  0  0  0  0  0  0
  160.4836  149.4900  126.5169 O   0  0  0  0  0  0  0  0  0  0  0  0
  162.8825  149.8124  126.4835 C   0  0  2  0  0  0  0  0  0  0  0  0
  163.2669  150.3794  125.1333 C   0  0  0  0  0  0  0  0  0  0  0  0
  164.2273  151.4951  125.2572 C   0  0  0  0  0  0  0  0  0  0  0  0
  163.7711  152.7218  125.6677 C   0  0  0  0  0  0  0  0  0  0  0  0
  164.6146  153.8023  125.8033 C   0  0  0  0  0  0  0  0  0  0  0  0
  165.9404  153.6465  125.5214 C   0  0  0  0  0  0  0  0  0  0  0  0
  166.4341  152.4083  125.1012 C   0  0  0  0  0  0  0  0  0  0  0  0
  165.5629  151.3419  124.9742 C   0  0  0  0  0  0  0  0  0  0  0  0
  163.8780  148.9153  127.0021 N   0  0  0  0  0  0  0  0  0  0  0  0
  164.7752  148.9767  128.1223 C   0  0  0  0  0  0  0  0  0  0  0  0
  165.1458  150.0279  128.7228 O   0  0  0  0  0  0  0  0  0  0  0  0
  165.1390  147.5596  128.3827 C   0  0  2  0  0  0  0  0  0  0  0  0
  164.1242  147.0203  129.3700 C   0  0  0  0  0  0  0  0  0  0  0  0
  166.4933  147.4109  128.8646 N   0  0  0  0  0  0  0  0  0  0  0  0
  167.6329  147.8489  128.1770 C   0  0  0  0  0  0  0  0  0  0  0  0
  168.2238  147.0267  127.4305 O   0  0  0  0  0  0  0  0  0  0  0  0
  168.1853  149.2227  128.2754 C   0  0  1  0  0  0  0  0  0  0  0  0
  168.9771  149.4659  129.5201 C   0  0  0  0  0  0  0  0  0  0  0  0
  170.2700  148.8717  129.5183 N   0  0  0  0  0  0  0  0  0  0  0  0
  171.0893  149.6073  130.4921 C   0  0  0  0  0  0  0  0  0  0  0  0
  170.9118  148.8431  128.2112 C   0  0  2  0  0  0  0  0  0  0  0  0
  172.3871  148.7435  128.3465 C   0  0  0  0  0  0  0  0  0  0  0  0
  173.0675  148.9885  127.0600 C   0  0  0  0  0  0  0  0  0  0  0  0
  174.3189  148.7000  126.5013 C   0  0  0  0  0  0  0  0  0  0  0  0
  174.3595  149.2126  125.2454 N   0  0  0  0  0  0  0  0  0  0  0  0
  173.2030  149.8270  124.9365 C   0  0  0  0  0  0  0  0  0  0  0  0
  172.6822  150.5033  123.8539 C   0  0  0  0  0  0  0  0  0  0  0  0
  171.4097  151.0098  123.9193 C   0  0  0  0  0  0  0  0  0  0  0  0
  170.6204  150.8531  125.0721 C   0  0  0  0  0  0  0  0  0  0  0  0
  171.1584  150.1755  126.1399 C   0  0  0  0  0  0  0  0  0  0  0  0
  172.4165  149.6761  126.0744 C   0  0  0  0  0  0  0  0  0  0  0  0
  170.3758  149.9585  127.3866 C   0  0  1  0  0  0  0  0  0  0  0  0
  168.9240  149.6010  127.0269 C   0  0  0  0  0  0  0  0  0  0  0  0
  164.9535  146.9210  127.1901 O   0  0  0  0  0  0  0  0  0  0  0  0
  164.1423  147.6618  126.3776 C   0  0  1  0  0  0  0  0  0  0  0  0
  164.8813  147.9348  125.2021 O   0  0  0  0  0  0  0  0  0  0  0  0
  1  2  1  6
  2  3  1  0
  3  4  1  0
  4  5  1  0
  5  6  1  0
  6  7  2  0
  6  8  1  0
  8  9  1  6
  9 10  1  0
 10 11  2  0
 11 12  1  0
 12 13  2  0
 13 14  1  0
 14 15  2  0
  8 16  1  0
 16 17  1  0
 17 18  2  0
 17 19  1  0
 19 20  1  1
 19 21  1  0
 21 22  1  0
 22 23  2  0
 24 22  1  6
 24 25  1  0
 25 26  1  0
 26 27  1  0
 26 28  1  0
 28 29  1  1
 29 30  1  0
 30 31  2  0
 31 32  1  0
 32 33  1  0
 33 34  2  0
 34 35  1  0
 35 36  2  0
 36 37  1  0
 37 38  2  0
 37 39  1  0
 39 40  1  6
 19 41  1  0
 41 42  1  0
 42 43  1  6
  5  1  1  0
 15 10  1  0
 42 16  1  0
 42  1  1  0
 40 24  1  0
 39 28  1  0
 38 30  1  0
 38 33  1  0
M  END
$$$$
