
     RDKit          3D

 43 50  0  0  0  0  0  0  0  0999 V2000
  191.5171  163.6470  131.2430 C   0  0  2  0  0  0  0  0  0  0  0  0
  192.5927  164.5374  130.6080 C   0  0  0  0  0  0  0  0  0  0  0  0
  193.0616  165.3361  131.8005 C   0  0  0  0  0  0  0  0  0  0  0  0
  192.6456  164.5469  133.0357 C   0  0  0  0  0  0  0  0  0  0  0  0
  192.1477  163.2977  132.4873 N   0  0  0  0  0  0  0  0  0  0  0  0
  192.2210  161.9800  132.9953 C   0  0  0  0  0  0  0  0  0  0  0  0
  192.3842  161.8144  134.2290 O   0  0  0  0  0  0  0  0  0  0  0  0
  192.0989  160.8490  132.0275 C   0  0  2  0  0  0  0  0  0  0  0  0
  193.4697  160.6350  131.4213 C   0  0  0  0  0  0  0  0  0  0  0  0
  194.0846  159.3728  131.8808 C   0  0  0  0  0  0  0  0  0  0  0  0
  194.7229  159.3483  133.0947 C   0  0  0  0  0  0  0  0  0  0  0  0
  195.3163  158.2040  133.5803 C   0  0  0  0  0  0  0  0  0  0  0  0
  195.2670  157.0642  132.8322 C   0  0  0  0  0  0  0  0  0  0  0  0
  194.6236  157.0589  131.5914 C   0  0  0  0  0  0  0  0  0  0  0  0
  194.0369  158.2233  131.1303 C   0  0  0  0  0  0  0  0  0  0  0  0
  191.1199  161.2234  131.0446 N   0  0  0  0  0  0  0  0  0  0  0  0
  189.9561  160.5715  130.5117 C   0  0  0  0  0  0  0  0  0  0  0  0
  189.7212  159.3277  130.5389 O   0  0  0  0  0  0  0  0  0  0  0  0
  189.1386  161.6770  129.9479 C   0  0  2  0  0  0  0  0  0  0  0  0
  188.2234  162.1555  131.0564 C   0  0  0  0  0  0  0  0  0  0  0  0
  188.3998  161.2803  128.7710 N   0  0  0  0  0  0  0  0  0  0  0  0
  188.9355  160.5372  127.7107 C   0  0  0  0  0  0  0  0  0  0  0  0
  188.5152  160.7784  126.5498 O   0  0  0  0  0  0  0  0  0  0  0  0
  189.9677  159.4835  127.8732 C   0  0  1  0  0  0  0  0  0  0  0  0
  189.4075  158.1003  127.9643 C   0  0  0  0  0  0  0  0  0  0  0  0
  188.9588  157.5664  126.7242 N   0  0  0  0  0  0  0  0  0  0  0  0
  188.9539  156.1024  126.8559 C   0  0  0  0  0  0  0  0  0  0  0  0
  189.7478  157.9849  125.5737 C   0  0  2  0  0  0  0  0  0  0  0  0
  189.6079  157.0189  124.4547 C   0  0  0  0  0  0  0  0  0  0  0  0
  190.6009  157.2719  123.3927 C   0  0  0  0  0  0  0  0  0  0  0  0
  190.7346  156.9653  122.0327 C   0  0  0  0  0  0  0  0  0  0  0  0
  191.9106  157.4765  121.5884 N   0  0  0  0  0  0  0  0  0  0  0  0
  192.5681  158.1075  122.5784 C   0  0  0  0  0  0  0  0  0  0  0  0
  193.7586  158.7879  122.7199 C   0  0  0  0  0  0  0  0  0  0  0  0
  194.0995  159.3109  123.9407 C   0  0  0  0  0  0  0  0  0  0  0  0
  193.2567  159.1677  125.0568 C   0  0  0  0  0  0  0  0  0  0  0  0
  192.0744  158.4862  124.8941 C   0  0  0  0  0  0  0  0  0  0  0  0
  191.7390  157.9691  123.6873 C   0  0  0  0  0  0  0  0  0  0  0  0
  191.1264  158.3092  126.0272 C   0  0  1  0  0  0  0  0  0  0  0  0
  191.0435  159.6136  126.8373 C   0  0  0  0  0  0  0  0  0  0  0  0
  190.0310  162.6733  129.6729 O   0  0  0  0  0  0  0  0  0  0  0  0
  191.1888  162.4778  130.3716 C   0  0  1  0  0  0  0  0  0  0  0  0
  192.2292  162.3772  129.4178 O   0  0  0  0  0  0  0  0  0  0  0  0
  1  2  1  6
  2  3  1  0
  3  4  1  0
  4  5  1  0
  5  6  1  0
  6  7  2  0
  6  8  1  0
  8  9  1  6
  9 10  1  0
 10 11  2  0
 11 12  1  0
 12 13  2  0
 13 14  1  0
 14 15  2  0
  8 16  1  0
 16 17  1  0
 17 18  2  0
 17 19  1  0
 19 20  1  1
 19 21  1  0
 21 22  1  0
 22 23  2  0
 24 22  1  6
 24 25  1  0
 25 26  1  0
 26 27  1  0
 26 28  1  0
 28 29  1  6
 29 30  1  0
 30 31  2  0
 31 32  1  0
 32 33  1  0
 33 34  2  0
 34 35  1  0
 35 36  2  0
 36 37  1  0
 37 38  2  0
 37 39  1  0
 39 40  1  6
 19 41  1  0
 41 42  1  0
 42 43  1  6
  5  1  1  0
 15 10  1  0
 42 16  1  0
 42  1  1  0
 40 24  1  0
 39 28  1  0
 38 30  1  0
 38 33  1  0
M  END
$$$$
