
     RDKit          3D

 43 50  0  0  0  0  0  0  0  0999 V2000
  159.1161  145.7290  123.0335 C   0  0  2  0  0  0  0  0  0  0  0  0
  157.9331  146.4911  122.4229 C   0  0  0  0  0  0  0  0  0  0  0  0
  156.9839  145.3617  122.1016 C   0  0  0  0  0  0  0  0  0  0  0  0
  157.4138  144.1816  122.9644 C   0  0  0  0  0  0  0  0  0  0  0  0
  158.4303  144.7495  123.8324 N   0  0  0  0  0  0  0  0  0  0  0  0
  158.7484  144.4638  125.1803 C   0  0  0  0  0  0  0  0  0  0  0  0
  158.4227  143.3488  125.6564 O   0  0  0  0  0  0  0  0  0  0  0  0
  159.4602  145.5135  125.9691 C   0  0  2  0  0  0  0  0  0  0  0  0
  158.4075  146.4759  126.4768 C   0  0  0  0  0  0  0  0  0  0  0  0
  157.1654  145.7781  126.8677 C   0  0  0  0  0  0  0  0  0  0  0  0
  157.2139  144.8514  127.8778 C   0  0  0  0  0  0  0  0  0  0  0  0
  156.0920  144.1664  128.2896 C   0  0  0  0  0  0  0  0  0  0  0  0
  154.9003  144.4177  127.6749 C   0  0  0  0  0  0  0  0  0  0  0  0
  154.8202  145.3566  126.6426 C   0  0  0  0  0  0  0  0  0  0  0  0
  155.9637  146.0285  126.2510 C   0  0  0  0  0  0  0  0  0  0  0  0
  160.4036  146.1497  125.0917 N   0  0  0  0  0  0  0  0  0  0  0  0
  161.8046  146.4491  125.1978 C   0  0  0  0  0  0  0  0  0  0  0  0
  162.4687  146.5336  126.2724 O   0  0  0  0  0  0  0  0  0  0  0  0
  162.2525  146.6256  123.7919 C   0  0  2  0  0  0  0  0  0  0  0  0
  162.6968  145.2638  123.2986 C   0  0  0  0  0  0  0  0  0  0  0  0
  163.2970  147.6154  123.6593 N   0  0  0  0  0  0  0  0  0  0  0  0
  164.1229  148.0429  124.7074 C   0  0  0  0  0  0  0  0  0  0  0  0
  165.2495  147.4969  124.8310 O   0  0  0  0  0  0  0  0  0  0  0  0
  163.7502  149.0996  125.6803 C   0  0  1  0  0  0  0  0  0  0  0  0
  163.9154  148.6891  127.1085 C   0  0  0  0  0  0  0  0  0  0  0  0
  165.2653  148.6558  127.5568 N   0  0  0  0  0  0  0  0  0  0  0  0
  165.2413  148.7739  129.0217 C   0  0  0  0  0  0  0  0  0  0  0  0
  166.1165  149.6782  126.9640 C   0  0  2  0  0  0  0  0  0  0  0  0
  167.2935  149.9540  127.8261 C   0  0  0  0  0  0  0  0  0  0  0  0
  168.0142  151.1653  127.3887 C   0  0  0  0  0  0  0  0  0  0  0  0
  169.2998  151.6968  127.5506 C   0  0  0  0  0  0  0  0  0  0  0  0
  169.3600  152.8867  126.9009 N   0  0  0  0  0  0  0  0  0  0  0  0
  168.1842  153.1773  126.3145 C   0  0  0  0  0  0  0  0  0  0  0  0
  167.6679  154.2032  125.5521 C   0  0  0  0  0  0  0  0  0  0  0  0
  166.3675  154.1399  125.1219 C   0  0  0  0  0  0  0  0  0  0  0  0
  165.5454  153.0456  125.4429 C   0  0  0  0  0  0  0  0  0  0  0  0
  166.0798  152.0334  126.2037 C   0  0  0  0  0  0  0  0  0  0  0  0
  167.3649  152.0975  126.6289 C   0  0  0  0  0  0  0  0  0  0  0  0
  165.2732  150.8376  126.5689 C   0  0  1  0  0  0  0  0  0  0  0  0
  164.4311  150.3963  125.3601 C   0  0  0  0  0  0  0  0  0  0  0  0
  161.1281  146.9816  123.1036 O   0  0  0  0  0  0  0  0  0  0  0  0
  160.0111  146.6386  123.8118 C   0  0  1  0  0  0  0  0  0  0  0  0
  159.2845  147.8327  124.0320 O   0  0  0  0  0  0  0  0  0  0  0  0
  1  2  1  1
  2  3  1  0
  3  4  1  0
  4  5  1  0
  5  6  1  0
  6  7  2  0
  6  8  1  0
  8  9  1  6
  9 10  1  0
 10 11  2  0
 11 12  1  0
 12 13  2  0
 13 14  1  0
 14 15  2  0
  8 16  1  0
 16 17  1  0
 17 18  2  0
 17 19  1  0
 19 20  1  6
 19 21  1  0
 21 22  1  0
 22 23  2  0
 24 22  1  6
 24 25  1  0
 25 26  1  0
 26 27  1  0
 26 28  1  0
 28 29  1  1
 29 30  1  0
 30 31  2  0
 31 32  1  0
 32 33  1  0
 33 34  2  0
 34 35  1  0
 35 36  2  0
 36 37  1  0
 37 38  2  0
 37 39  1  0
 39 40  1  6
 19 41  1  0
 41 42  1  0
 42 43  1  1
  5  1  1  0
 15 10  1  0
 42 16  1  0
 42  1  1  0
 40 24  1  0
 39 28  1  0
 38 30  1  0
 38 33  1  0
M  END
$$$$
