
     RDKit          3D

 43 50  0  0  0  0  0  0  0  0999 V2000
  203.6151  136.3032  131.1470 C   0  0  2  0  0  0  0  0  0  0  0  0
  204.6882  137.0174  130.3156 C   0  0  0  0  0  0  0  0  0  0  0  0
  204.1429  138.4247  130.2694 C   0  0  0  0  0  0  0  0  0  0  0  0
  203.1593  138.5417  131.4272 C   0  0  0  0  0  0  0  0  0  0  0  0
  203.3383  137.2951  132.1507 N   0  0  0  0  0  0  0  0  0  0  0  0
  203.2732  137.0224  133.5367 C   0  0  0  0  0  0  0  0  0  0  0  0
  202.6252  137.8014  134.2778 O   0  0  0  0  0  0  0  0  0  0  0  0
  203.9852  135.8123  134.0461 C   0  0  2  0  0  0  0  0  0  0  0  0
  205.4347  136.2021  134.2446 C   0  0  0  0  0  0  0  0  0  0  0  0
  205.8085  136.2250  135.6736 C   0  0  0  0  0  0  0  0  0  0  0  0
  206.1782  137.4162  136.2445 C   0  0  0  0  0  0  0  0  0  0  0  0
  206.5379  137.5051  137.5712 C   0  0  0  0  0  0  0  0  0  0  0  0
  206.5257  136.3764  138.3374 C   0  0  0  0  0  0  0  0  0  0  0  0
  206.1535  135.1484  137.7832 C   0  0  0  0  0  0  0  0  0  0  0  0
  205.7974  135.0905  136.4482 C   0  0  0  0  0  0  0  0  0  0  0  0
  203.8288  134.7730  133.0663 N   0  0  0  0  0  0  0  0  0  0  0  0
  203.4059  133.4021  133.1396 C   0  0  0  0  0  0  0  0  0  0  0  0
  203.4092  132.6763  134.1770 O   0  0  0  0  0  0  0  0  0  0  0  0
  202.9844  133.0705  131.7538 C   0  0  2  0  0  0  0  0  0  0  0  0
  201.5094  133.4016  131.6526 C   0  0  0  0  0  0  0  0  0  0  0  0
  203.2545  131.6950  131.4025 N   0  0  0  0  0  0  0  0  0  0  0  0
  203.1773  130.6181  132.2955 C   0  0  0  0  0  0  0  0  0  0  0  0
  202.0594  130.0640  132.4563 O   0  0  0  0  0  0  0  0  0  0  0  0
  204.3329  130.0913  133.0632 C   0  0  1  0  0  0  0  0  0  0  0  0
  203.9501  129.1403  134.1515 C   0  0  0  0  0  0  0  0  0  0  0  0
  203.5752  127.8460  133.6945 N   0  0  0  0  0  0  0  0  0  0  0  0
  203.7534  126.9176  134.8201 C   0  0  0  0  0  0  0  0  0  0  0  0
  204.3089  127.3917  132.5213 C   0  0  2  0  0  0  0  0  0  0  0  0
  204.2942  125.9099  132.4273 C   0  0  0  0  0  0  0  0  0  0  0  0
  205.2507  125.4212  131.4151 C   0  0  0  0  0  0  0  0  0  0  0  0
  205.4256  124.2530  130.6629 C   0  0  0  0  0  0  0  0  0  0  0  0
  206.5295  124.4000  129.8874 N   0  0  0  0  0  0  0  0  0  0  0  0
  207.1001  125.6030  130.0817 C   0  0  0  0  0  0  0  0  0  0  0  0
  208.1956  126.2857  129.5978 C   0  0  0  0  0  0  0  0  0  0  0  0
  208.4648  127.5489  130.0583 C   0  0  0  0  0  0  0  0  0  0  0  0
  207.6434  128.1660  131.0179 C   0  0  0  0  0  0  0  0  0  0  0  0
  206.5562  127.4683  131.4870 C   0  0  0  0  0  0  0  0  0  0  0  0
  206.2916  126.2196  131.0317 C   0  0  0  0  0  0  0  0  0  0  0  0
  205.6347  128.0644  132.4916 C   0  0  1  0  0  0  0  0  0  0  0  0
  205.3868  129.5429  132.1488 C   0  0  0  0  0  0  0  0  0  0  0  0
  203.6715  133.9404  130.9564 O   0  0  0  0  0  0  0  0  0  0  0  0
  204.1167  135.0040  131.6897 C   0  0  1  0  0  0  0  0  0  0  0  0
  205.5257  135.0271  131.5615 O   0  0  0  0  0  0  0  0  0  0  0  0
  1  2  1  6
  2  3  1  0
  3  4  1  0
  4  5  1  0
  5  6  1  0
  6  7  2  0
  6  8  1  0
  8  9  1  6
  9 10  1  0
 10 11  2  0
 11 12  1  0
 12 13  2  0
 13 14  1  0
 14 15  2  0
  8 16  1  0
 16 17  1  0
 17 18  2  0
 17 19  1  0
 19 20  1  1
 19 21  1  0
 21 22  1  0
 22 23  2  0
 24 22  1  6
 24 25  1  0
 25 26  1  0
 26 27  1  0
 26 28  1  0
 28 29  1  1
 29 30  1  0
 30 31  2  0
 31 32  1  0
 32 33  1  0
 33 34  2  0
 34 35  1  0
 35 36  2  0
 36 37  1  0
 37 38  2  0
 37 39  1  0
 39 40  1  6
 19 41  1  0
 41 42  1  0
 42 43  1  1
  5  1  1  0
 15 10  1  0
 42 16  1  0
 42  1  1  0
 40 24  1  0
 39 28  1  0
 38 30  1  0
 38 33  1  0
M  END
$$$$
