
     RDKit          3D

 43 50  0  0  0  0  0  0  0  0999 V2000
  127.6196  144.6326  133.7584 C   0  0  2  0  0  0  0  0  0  0  0  0
  126.2599  145.0916  133.2165 C   0  0  0  0  0  0  0  0  0  0  0  0
  126.4103  146.5932  133.2652 C   0  0  0  0  0  0  0  0  0  0  0  0
  127.9073  146.8728  133.3160 C   0  0  0  0  0  0  0  0  0  0  0  0
  128.5032  145.5643  133.1110 N   0  0  0  0  0  0  0  0  0  0  0  0
  129.6890  145.1928  132.4360 C   0  0  0  0  0  0  0  0  0  0  0  0
  130.5939  146.0497  132.2848 O   0  0  0  0  0  0  0  0  0  0  0  0
  129.7996  143.7896  131.9364 C   0  0  2  0  0  0  0  0  0  0  0  0
  129.0864  143.7372  130.6020 C   0  0  0  0  0  0  0  0  0  0  0  0
  130.0348  143.6382  129.4736 C   0  0  0  0  0  0  0  0  0  0  0  0
  129.8564  144.4505  128.3828 C   0  0  0  0  0  0  0  0  0  0  0  0
  130.7050  144.4074  127.2987 C   0  0  0  0  0  0  0  0  0  0  0  0
  131.7514  143.5321  127.3115 C   0  0  0  0  0  0  0  0  0  0  0  0
  131.9583  142.6919  128.4091 C   0  0  0  0  0  0  0  0  0  0  0  0
  131.0895  142.7580  129.4831 C   0  0  0  0  0  0  0  0  0  0  0  0
  129.1903  142.9319  132.9150 N   0  0  0  0  0  0  0  0  0  0  0  0
  129.6189  141.7339  133.5819 C   0  0  0  0  0  0  0  0  0  0  0  0
  130.5236  140.9429  133.1836 O   0  0  0  0  0  0  0  0  0  0  0  0
  128.7697  141.6645  134.7995 C   0  0  2  0  0  0  0  0  0  0  0  0
  129.5111  142.4038  135.8944 C   0  0  0  0  0  0  0  0  0  0  0  0
  128.4535  140.3075  135.1825 N   0  0  0  0  0  0  0  0  0  0  0  0
  128.3045  139.2433  134.2832 C   0  0  0  0  0  0  0  0  0  0  0  0
  127.1499  138.9937  133.8507 O   0  0  0  0  0  0  0  0  0  0  0  0
  129.4248  138.3929  133.8100 C   0  0  1  0  0  0  0  0  0  0  0  0
  129.8352  137.3383  134.7872 C   0  0  0  0  0  0  0  0  0  0  0  0
  128.9409  136.2347  134.8692 N   0  0  0  0  0  0  0  0  0  0  0  0
  129.6991  135.0984  135.4118 C   0  0  0  0  0  0  0  0  0  0  0  0
  128.3076  135.8845  133.6053 C   0  0  2  0  0  0  0  0  0  0  0  0
  127.8546  134.4705  133.6127 C   0  0  0  0  0  0  0  0  0  0  0  0
  127.4646  134.0189  132.2628 C   0  0  0  0  0  0  0  0  0  0  0  0
  126.6745  132.9968  131.7222 C   0  0  0  0  0  0  0  0  0  0  0  0
  126.7129  133.0913  130.3689 N   0  0  0  0  0  0  0  0  0  0  0  0
  127.4856  134.1213  129.9781 C   0  0  0  0  0  0  0  0  0  0  0  0
  127.8840  134.6820  128.7834 C   0  0  0  0  0  0  0  0  0  0  0  0
  128.7144  135.7730  128.7902 C   0  0  0  0  0  0  0  0  0  0  0  0
  129.1704  136.3353  129.9954 C   0  0  0  0  0  0  0  0  0  0  0  0
  128.7611  135.7613  131.1752 C   0  0  0  0  0  0  0  0  0  0  0  0
  127.9410  134.6826  131.1671 C   0  0  0  0  0  0  0  0  0  0  0  0
  129.1915  136.3122  132.4886 C   0  0  1  0  0  0  0  0  0  0  0  0
  129.1516  137.8488  132.4400 C   0  0  0  0  0  0  0  0  0  0  0  0
  127.6469  142.3772  134.4897 O   0  0  0  0  0  0  0  0  0  0  0  0
  127.8870  143.2001  133.4257 C   0  0  1  0  0  0  0  0  0  0  0  0
  126.9657  142.8391  132.4142 O   0  0  0  0  0  0  0  0  0  0  0  0
  1  2  1  6
  2  3  1  0
  3  4  1  0
  4  5  1  0
  5  6  1  0
  6  7  2  0
  6  8  1  0
  8  9  1  6
  9 10  1  0
 10 11  2  0
 11 12  1  0
 12 13  2  0
 13 14  1  0
 14 15  2  0
  8 16  1  0
 16 17  1  0
 17 18  2  0
 17 19  1  0
 19 20  1  1
 19 21  1  0
 21 22  1  0
 22 23  2  0
 24 22  1  1
 24 25  1  0
 25 26  1  0
 26 27  1  0
 26 28  1  0
 28 29  1  1
 29 30  1  0
 30 31  2  0
 31 32  1  0
 32 33  1  0
 33 34  2  0
 34 35  1  0
 35 36  2  0
 36 37  1  0
 37 38  2  0
 37 39  1  0
 39 40  1  6
 19 41  1  0
 41 42  1  0
 42 43  1  6
  5  1  1  0
 15 10  1  0
 42 16  1  0
 42  1  1  0
 40 24  1  0
 39 28  1  0
 38 30  1  0
 38 33  1  0
M  END
$$$$
