
     RDKit          3D

 43 50  0  0  0  0  0  0  0  0999 V2000
  126.5336  147.2020  135.5245 C   0  0  2  0  0  0  0  0  0  0  0  0
  125.1598  147.5689  134.9493 C   0  0  0  0  0  0  0  0  0  0  0  0
  124.8322  148.8180  135.7318 C   0  0  0  0  0  0  0  0  0  0  0  0
  126.1561  149.3464  136.2701 C   0  0  0  0  0  0  0  0  0  0  0  0
  127.1452  148.4994  135.6269 N   0  0  0  0  0  0  0  0  0  0  0  0
  128.4488  148.7988  135.1678 C   0  0  0  0  0  0  0  0  0  0  0  0
  129.0543  149.7815  135.6615 O   0  0  0  0  0  0  0  0  0  0  0  0
  129.0377  147.9215  134.1122 C   0  0  2  0  0  0  0  0  0  0  0  0
  128.5124  148.4166  132.7813 C   0  0  0  0  0  0  0  0  0  0  0  0
  128.9495  149.7986  132.4959 C   0  0  0  0  0  0  0  0  0  0  0  0
  130.2833  150.0445  132.2912 C   0  0  0  0  0  0  0  0  0  0  0  0
  130.7554  151.3100  132.0211 C   0  0  0  0  0  0  0  0  0  0  0  0
  129.8708  152.3466  131.9556 C   0  0  0  0  0  0  0  0  0  0  0  0
  128.5058  152.1264  132.1598 C   0  0  0  0  0  0  0  0  0  0  0  0
  128.0616  150.8448  132.4292 C   0  0  0  0  0  0  0  0  0  0  0  0
  128.6296  146.5726  134.3923 N   0  0  0  0  0  0  0  0  0  0  0  0
  129.3393  145.3284  134.5006 C   0  0  0  0  0  0  0  0  0  0  0  0
  130.4795  145.0764  134.0112 O   0  0  0  0  0  0  0  0  0  0  0  0
  128.4364  144.4556  135.2951 C   0  0  2  0  0  0  0  0  0  0  0  0
  128.7996  144.6589  136.7519 C   0  0  0  0  0  0  0  0  0  0  0  0
  128.5195  143.0661  134.9067 N   0  0  0  0  0  0  0  0  0  0  0  0
  129.2129  142.5963  133.7834 C   0  0  0  0  0  0  0  0  0  0  0  0
  128.8370  142.9920  132.6500 O   0  0  0  0  0  0  0  0  0  0  0  0
  130.3629  141.6607  133.8487 C   0  0  1  0  0  0  0  0  0  0  0  0
  130.0014  140.2949  134.3381 C   0  0  0  0  0  0  0  0  0  0  0  0
  129.3143  139.4930  133.3846 N   0  0  0  0  0  0  0  0  0  0  0  0
  129.5057  138.0893  133.7765 C   0  0  0  0  0  0  0  0  0  0  0  0
  129.7336  139.7127  132.0072 C   0  0  2  0  0  0  0  0  0  0  0  0
  129.4219  138.5317  131.1629 C   0  0  0  0  0  0  0  0  0  0  0  0
  130.0779  138.6198  129.8438 C   0  0  0  0  0  0  0  0  0  0  0  0
  129.8947  138.0496  128.5778 C   0  0  0  0  0  0  0  0  0  0  0  0
  130.8548  138.5273  127.7461 N   0  0  0  0  0  0  0  0  0  0  0  0
  131.6682  139.3851  128.3890 C   0  0  0  0  0  0  0  0  0  0  0  0
  132.7724  140.1488  128.0764 C   0  0  0  0  0  0  0  0  0  0  0  0
  133.3522  140.9298  129.0428 C   0  0  0  0  0  0  0  0  0  0  0  0
  132.8420  140.9688  130.3523 C   0  0  0  0  0  0  0  0  0  0  0  0
  131.7404  140.2001  130.6429 C   0  0  0  0  0  0  0  0  0  0  0  0
  131.1688  139.4281  129.6871 C   0  0  0  0  0  0  0  0  0  0  0  0
  131.1373  140.2034  132.0031 C   0  0  1  0  0  0  0  0  0  0  0  0
  131.1187  141.6390  132.5542 C   0  0  0  0  0  0  0  0  0  0  0  0
  127.1849  144.9631  135.0937 O   0  0  0  0  0  0  0  0  0  0  0  0
  127.2632  146.2478  134.6349 C   0  0  1  0  0  0  0  0  0  0  0  0
  126.6046  146.2751  133.3828 O   0  0  0  0  0  0  0  0  0  0  0  0
  1  2  1  6
  2  3  1  0
  3  4  1  0
  4  5  1  0
  5  6  1  0
  6  7  2  0
  6  8  1  0
  8  9  1  6
  9 10  1  0
 10 11  2  0
 11 12  1  0
 12 13  2  0
 13 14  1  0
 14 15  2  0
  8 16  1  0
 16 17  1  0
 17 18  2  0
 17 19  1  0
 19 20  1  1
 19 21  1  0
 21 22  1  0
 22 23  2  0
 24 22  1  6
 24 25  1  0
 25 26  1  0
 26 27  1  0
 26 28  1  0
 28 29  1  6
 29 30  1  0
 30 31  2  0
 31 32  1  0
 32 33  1  0
 33 34  2  0
 34 35  1  0
 35 36  2  0
 36 37  1  0
 37 38  2  0
 37 39  1  0
 39 40  1  6
 19 41  1  0
 41 42  1  0
 42 43  1  6
  5  1  1  0
 15 10  1  0
 42 16  1  0
 42  1  1  0
 40 24  1  0
 39 28  1  0
 38 30  1  0
 38 33  1  0
M  END
$$$$
