
     RDKit          3D

 43 50  0  0  0  0  0  0  0  0999 V2000
  207.1222  135.0024  135.1978 C   0  0  2  0  0  0  0  0  0  0  0  0
  208.1725  134.6501  136.2588 C   0  0  0  0  0  0  0  0  0  0  0  0
  208.3825  135.9877  136.9270 C   0  0  0  0  0  0  0  0  0  0  0  0
  207.1556  136.8290  136.5975 C   0  0  0  0  0  0  0  0  0  0  0  0
  206.2661  135.8876  135.9404 N   0  0  0  0  0  0  0  0  0  0  0  0
  204.8559  135.7872  135.9676 C   0  0  0  0  0  0  0  0  0  0  0  0
  204.1815  136.8046  136.2611 O   0  0  0  0  0  0  0  0  0  0  0  0
  204.2419  134.4650  135.6426 C   0  0  2  0  0  0  0  0  0  0  0  0
  204.2724  133.6389  136.9110 C   0  0  0  0  0  0  0  0  0  0  0  0
  203.0099  133.7484  137.6705 C   0  0  0  0  0  0  0  0  0  0  0  0
  201.8967  133.0952  137.2063 C   0  0  0  0  0  0  0  0  0  0  0  0
  200.6899  133.1569  137.8674 C   0  0  0  0  0  0  0  0  0  0  0  0
  200.6007  133.8884  139.0155 C   0  0  0  0  0  0  0  0  0  0  0  0
  201.7183  134.5648  139.5126 C   0  0  0  0  0  0  0  0  0  0  0  0
  202.9165  134.4841  138.8269 C   0  0  0  0  0  0  0  0  0  0  0  0
  205.0184  133.8742  134.5878 N   0  0  0  0  0  0  0  0  0  0  0  0
  204.6791  133.2879  133.3210 C   0  0  0  0  0  0  0  0  0  0  0  0
  203.5457  132.8292  132.9925 O   0  0  0  0  0  0  0  0  0  0  0  0
  205.9377  133.3544  132.5337 C   0  0  2  0  0  0  0  0  0  0  0  0
  205.9246  134.6780  131.7965 C   0  0  0  0  0  0  0  0  0  0  0  0
  206.0917  132.2355  131.6323 N   0  0  0  0  0  0  0  0  0  0  0  0
  206.0262  130.8902  132.0187 C   0  0  0  0  0  0  0  0  0  0  0  0
  205.1986  130.1472  131.4307 O   0  0  0  0  0  0  0  0  0  0  0  0
  206.8727  130.2885  133.0786 C   0  0  1  0  0  0  0  0  0  0  0  0
  206.2146  129.1611  133.8076 C   0  0  0  0  0  0  0  0  0  0  0  0
  206.1505  127.9449  133.0719 N   0  0  0  0  0  0  0  0  0  0  0  0
  205.9979  126.8541  134.0453 C   0  0  0  0  0  0  0  0  0  0  0  0
  207.2952  127.7127  132.2019 C   0  0  2  0  0  0  0  0  0  0  0  0
  207.4525  126.2659  131.9071 C   0  0  0  0  0  0  0  0  0  0  0  0
  208.7495  125.9818  131.2627 C   0  0  0  0  0  0  0  0  0  0  0  0
  209.2902  124.9573  130.4756 C   0  0  0  0  0  0  0  0  0  0  0  0
  210.5802  125.2672  130.1902 N   0  0  0  0  0  0  0  0  0  0  0  0
  210.9288  126.4429  130.7441 C   0  0  0  0  0  0  0  0  0  0  0  0
  212.0567  127.2337  130.7970 C   0  0  0  0  0  0  0  0  0  0  0  0
  212.0245  128.4149  131.4926 C   0  0  0  0  0  0  0  0  0  0  0  0
  210.8599  128.8391  132.1563 C   0  0  0  0  0  0  0  0  0  0  0  0
  209.7465  128.0361  132.0908 C   0  0  0  0  0  0  0  0  0  0  0  0
  209.7799  126.8686  131.4036 C   0  0  0  0  0  0  0  0  0  0  0  0
  208.4747  128.4287  132.7560 C   0  0  1  0  0  0  0  0  0  0  0  0
  208.2306  129.9332  132.5519 C   0  0  0  0  0  0  0  0  0  0  0  0
  206.9362  133.3954  133.4642 O   0  0  0  0  0  0  0  0  0  0  0  0
  206.4377  133.7800  134.6769 C   0  0  1  0  0  0  0  0  0  0  0  0
  206.7251  132.7348  135.5865 O   0  0  0  0  0  0  0  0  0  0  0  0
  1  2  1  1
  2  3  1  0
  3  4  1  0
  4  5  1  0
  5  6  1  0
  6  7  2  0
  6  8  1  0
  8  9  1  1
  9 10  1  0
 10 11  2  0
 11 12  1  0
 12 13  2  0
 13 14  1  0
 14 15  2  0
  8 16  1  0
 16 17  1  0
 17 18  2  0
 17 19  1  0
 19 20  1  6
 19 21  1  0
 21 22  1  0
 22 23  2  0
 24 22  1  6
 24 25  1  0
 25 26  1  0
 26 27  1  0
 26 28  1  0
 28 29  1  1
 29 30  1  0
 30 31  2  0
 31 32  1  0
 32 33  1  0
 33 34  2  0
 34 35  1  0
 35 36  2  0
 36 37  1  0
 37 38  2  0
 37 39  1  0
 39 40  1  6
 19 41  1  0
 41 42  1  0
 42 43  1  1
  5  1  1  0
 15 10  1  0
 42 16  1  0
 42  1  1  0
 40 24  1  0
 39 28  1  0
 38 30  1  0
 38 33  1  0
M  END
$$$$
