
     RDKit          3D

 43 50  0  0  0  0  0  0  0  0999 V2000
  205.2667  134.8557  132.5622 C   0  0  2  0  0  0  0  0  0  0  0  0
  206.7855  135.0706  132.5605 C   0  0  0  0  0  0  0  0  0  0  0  0
  206.8741  136.5769  132.6173 C   0  0  0  0  0  0  0  0  0  0  0  0
  205.5318  137.0658  133.1470 C   0  0  0  0  0  0  0  0  0  0  0  0
  204.8499  135.8402  133.5240 N   0  0  0  0  0  0  0  0  0  0  0  0
  203.9550  135.5791  134.5873 C   0  0  0  0  0  0  0  0  0  0  0  0
  203.3228  136.5369  135.0962 O   0  0  0  0  0  0  0  0  0  0  0  0
  203.8106  134.1662  135.0497 C   0  0  2  0  0  0  0  0  0  0  0  0
  204.9486  133.8965  136.0111 C   0  0  0  0  0  0  0  0  0  0  0  0
  204.4979  133.9155  137.4178 C   0  0  0  0  0  0  0  0  0  0  0  0
  204.8513  134.9748  138.2143 C   0  0  0  0  0  0  0  0  0  0  0  0
  204.4634  135.0527  139.5337 C   0  0  0  0  0  0  0  0  0  0  0  0
  203.7068  134.0477  140.0616 C   0  0  0  0  0  0  0  0  0  0  0  0
  203.3314  132.9556  139.2743 C   0  0  0  0  0  0  0  0  0  0  0  0
  203.7360  132.9053  137.9528 C   0  0  0  0  0  0  0  0  0  0  0  0
  203.8659  133.3224  133.8880 N   0  0  0  0  0  0  0  0  0  0  0  0
  203.0321  132.2599  133.3985 C   0  0  0  0  0  0  0  0  0  0  0  0
  202.2236  131.5705  134.0869 O   0  0  0  0  0  0  0  0  0  0  0  0
  203.3466  132.1813  131.9483 C   0  0  2  0  0  0  0  0  0  0  0  0
  202.3831  133.1112  131.2393 C   0  0  0  0  0  0  0  0  0  0  0  0
  203.2731  130.8329  131.4338 N   0  0  0  0  0  0  0  0  0  0  0  0
  203.8991  129.7247  132.0199 C   0  0  0  0  0  0  0  0  0  0  0  0
  203.6584  128.5880  131.5378 O   0  0  0  0  0  0  0  0  0  0  0  0
  204.8280  129.8097  133.1740 C   0  0  1  0  0  0  0  0  0  0  0  0
  204.5604  128.7948  134.2388 C   0  0  0  0  0  0  0  0  0  0  0  0
  204.9794  127.4754  133.9101 N   0  0  0  0  0  0  0  0  0  0  0  0
  205.1539  126.7457  135.1742 C   0  0  0  0  0  0  0  0  0  0  0  0
  206.1895  127.4174  133.1019 C   0  0  2  0  0  0  0  0  0  0  0  0
  206.8661  126.1043  133.2531 C   0  0  0  0  0  0  0  0  0  0  0  0
  208.2212  126.1220  132.6686 C   0  0  0  0  0  0  0  0  0  0  0  0
  209.1408  125.1723  132.2062 C   0  0  0  0  0  0  0  0  0  0  0  0
  210.2555  125.8208  131.7836 N   0  0  0  0  0  0  0  0  0  0  0  0
  210.1289  127.1514  131.9391 C   0  0  0  0  0  0  0  0  0  0  0  0
  210.8997  128.2690  131.6998 C   0  0  0  0  0  0  0  0  0  0  0  0
  210.4058  129.5111  132.0052 C   0  0  0  0  0  0  0  0  0  0  0  0
  209.1237  129.6703  132.5597 C   0  0  0  0  0  0  0  0  0  0  0  0
  208.3716  128.5433  132.7900 C   0  0  0  0  0  0  0  0  0  0  0  0
  208.8611  127.3162  132.4884 C   0  0  0  0  0  0  0  0  0  0  0  0
  207.0004  128.6368  133.3602 C   0  0  1  0  0  0  0  0  0  0  0  0
  206.2569  129.8212  132.7204 C   0  0  0  0  0  0  0  0  0  0  0  0
  204.6040  132.7002  131.8295 O   0  0  0  0  0  0  0  0  0  0  0  0
  204.9123  133.4507  132.9289 C   0  0  1  0  0  0  0  0  0  0  0  0
  206.0708  132.8763  133.5036 O   0  0  0  0  0  0  0  0  0  0  0  0
  1  2  1  1
  2  3  1  0
  3  4  1  0
  4  5  1  0
  5  6  1  0
  6  7  2  0
  6  8  1  0
  8  9  1  1
  9 10  1  0
 10 11  2  0
 11 12  1  0
 12 13  2  0
 13 14  1  0
 14 15  2  0
  8 16  1  0
 16 17  1  0
 17 18  2  0
 17 19  1  0
 19 20  1  6
 19 21  1  0
 21 22  1  0
 22 23  2  0
 24 22  1  6
 24 25  1  0
 25 26  1  0
 26 27  1  0
 26 28  1  0
 28 29  1  1
 29 30  1  0
 30 31  2  0
 31 32  1  0
 32 33  1  0
 33 34  2  0
 34 35  1  0
 35 36  2  0
 36 37  1  0
 37 38  2  0
 37 39  1  0
 39 40  1  6
 19 41  1  0
 41 42  1  0
 42 43  1  1
  5  1  1  0
 15 10  1  0
 42 16  1  0
 42  1  1  0
 40 24  1  0
 39 28  1  0
 38 30  1  0
 38 33  1  0
M  END
$$$$
