
     RDKit          3D

 43 50  0  0  0  0  0  0  0  0999 V2000
  127.1094  149.0603  135.7581 C   0  0  2  0  0  0  0  0  0  0  0  0
  126.1395  149.4799  134.6462 C   0  0  0  0  0  0  0  0  0  0  0  0
  126.5815  150.8996  134.3842 C   0  0  0  0  0  0  0  0  0  0  0  0
  127.9988  151.0155  134.9316 C   0  0  0  0  0  0  0  0  0  0  0  0
  128.3355  149.6493  135.2913 N   0  0  0  0  0  0  0  0  0  0  0  0
  129.5703  148.9631  135.2295 C   0  0  0  0  0  0  0  0  0  0  0  0
  130.6344  149.6292  135.2318 O   0  0  0  0  0  0  0  0  0  0  0  0
  129.5396  147.4712  135.1644 C   0  0  2  0  0  0  0  0  0  0  0  0
  129.3186  147.0957  133.7145 C   0  0  0  0  0  0  0  0  0  0  0  0
  129.8986  145.7757  133.3925 C   0  0  0  0  0  0  0  0  0  0  0  0
  129.1477  144.6489  133.6120 C   0  0  0  0  0  0  0  0  0  0  0  0
  129.6299  143.3891  133.3330 C   0  0  0  0  0  0  0  0  0  0  0  0
  130.8892  143.2600  132.8245 C   0  0  0  0  0  0  0  0  0  0  0  0
  131.6776  144.3900  132.5904 C   0  0  0  0  0  0  0  0  0  0  0  0
  131.1662  145.6418  132.8804 C   0  0  0  0  0  0  0  0  0  0  0  0
  128.4707  147.0224  136.0134 N   0  0  0  0  0  0  0  0  0  0  0  0
  128.3863  146.0432  137.0611 C   0  0  0  0  0  0  0  0  0  0  0  0
  129.1814  145.0745  137.2408 O   0  0  0  0  0  0  0  0  0  0  0  0
  127.1855  146.4394  137.8417 C   0  0  2  0  0  0  0  0  0  0  0  0
  127.6586  147.3896  138.9228 C   0  0  0  0  0  0  0  0  0  0  0  0
  126.4780  145.3054  138.3911 N   0  0  0  0  0  0  0  0  0  0  0  0
  126.5322  144.0068  137.8677 C   0  0  0  0  0  0  0  0  0  0  0  0
  125.6606  143.1818  138.2450 O   0  0  0  0  0  0  0  0  0  0  0  0
  127.5544  143.5450  136.8960 C   0  0  1  0  0  0  0  0  0  0  0  0
  128.5363  142.5745  137.4700 C   0  0  0  0  0  0  0  0  0  0  0  0
  128.0217  141.2614  137.6579 N   0  0  0  0  0  0  0  0  0  0  0  0
  129.1700  140.3446  137.6971 C   0  0  0  0  0  0  0  0  0  0  0  0
  127.0573  140.8481  136.6479 C   0  0  2  0  0  0  0  0  0  0  0  0
  126.9819  139.3677  136.5605 C   0  0  0  0  0  0  0  0  0  0  0  0
  126.2264  138.9325  135.3697 C   0  0  0  0  0  0  0  0  0  0  0  0
  125.5508  137.7755  134.9619 C   0  0  0  0  0  0  0  0  0  0  0  0
  125.0514  137.9833  133.7173 N   0  0  0  0  0  0  0  0  0  0  0  0
  125.3572  139.2161  133.2733 C   0  0  0  0  0  0  0  0  0  0  0  0
  125.1323  139.9583  132.1335 C   0  0  0  0  0  0  0  0  0  0  0  0
  125.6261  141.2345  132.0473 C   0  0  0  0  0  0  0  0  0  0  0  0
  126.3603  141.8055  133.1015 C   0  0  0  0  0  0  0  0  0  0  0  0
  126.5730  141.0487  134.2289 C   0  0  0  0  0  0  0  0  0  0  0  0
  126.0851  139.7873  134.3127 C   0  0  0  0  0  0  0  0  0  0  0  0
  127.3279  141.5932  135.3897 C   0  0  1  0  0  0  0  0  0  0  0  0
  126.9174  143.0556  135.6302 C   0  0  0  0  0  0  0  0  0  0  0  0
  126.4097  147.1436  136.9659 O   0  0  0  0  0  0  0  0  0  0  0  0
  127.1607  147.5741  135.9088 C   0  0  1  0  0  0  0  0  0  0  0  0
  126.5752  147.0270  134.7424 O   0  0  0  0  0  0  0  0  0  0  0  0
  1  2  1  6
  2  3  1  0
  3  4  1  0
  4  5  1  0
  5  6  1  0
  6  7  2  0
  6  8  1  0
  8  9  1  6
  9 10  1  0
 10 11  2  0
 11 12  1  0
 12 13  2  0
 13 14  1  0
 14 15  2  0
  8 16  1  0
 16 17  1  0
 17 18  2  0
 17 19  1  0
 19 20  1  1
 19 21  1  0
 21 22  1  0
 22 23  2  0
 24 22  1  1
 24 25  1  0
 25 26  1  0
 26 27  1  0
 26 28  1  0
 28 29  1  6
 29 30  1  0
 30 31  2  0
 31 32  1  0
 32 33  1  0
 33 34  2  0
 34 35  1  0
 35 36  2  0
 36 37  1  0
 37 38  2  0
 37 39  1  0
 39 40  1  1
 19 41  1  0
 41 42  1  0
 42 43  1  6
  5  1  1  0
 15 10  1  0
 42 16  1  0
 42  1  1  0
 40 24  1  0
 39 28  1  0
 38 30  1  0
 38 33  1  0
M  END
$$$$
