
     RDKit          3D

 43 50  0  0  0  0  0  0  0  0999 V2000
  148.7476  175.5244  158.1684 C   0  0  2  0  0  0  0  0  0  0  0  0
  147.2863  175.7895  158.5521 C   0  0  0  0  0  0  0  0  0  0  0  0
  147.4425  176.3839  159.9312 C   0  0  0  0  0  0  0  0  0  0  0  0
  148.8806  176.8787  160.0245 C   0  0  0  0  0  0  0  0  0  0  0  0
  149.3847  176.7108  158.6729 N   0  0  0  0  0  0  0  0  0  0  0  0
  150.3019  177.4925  157.9331 C   0  0  0  0  0  0  0  0  0  0  0  0
  151.1138  178.2224  158.5528 O   0  0  0  0  0  0  0  0  0  0  0  0
  150.2533  177.4054  156.4429 C   0  0  2  0  0  0  0  0  0  0  0  0
  149.1602  178.3450  155.9798 C   0  0  0  0  0  0  0  0  0  0  0  0
  149.5441  179.0759  154.7547 C   0  0  0  0  0  0  0  0  0  0  0  0
  149.2777  180.4189  154.6715 C   0  0  0  0  0  0  0  0  0  0  0  0
  149.6100  181.1576  153.5574 C   0  0  0  0  0  0  0  0  0  0  0  0
  150.2210  180.5350  152.5084 C   0  0  0  0  0  0  0  0  0  0  0  0
  150.5050  179.1676  152.5646 C   0  0  0  0  0  0  0  0  0  0  0  0
  150.1594  178.4523  153.6966 C   0  0  0  0  0  0  0  0  0  0  0  0
  149.9799  176.0377  156.0975 N   0  0  0  0  0  0  0  0  0  0  0  0
  150.5961  175.1047  155.1957 C   0  0  0  0  0  0  0  0  0  0  0  0
  151.3329  175.3985  154.2089 O   0  0  0  0  0  0  0  0  0  0  0  0
  150.1681  173.7715  155.6935 C   0  0  2  0  0  0  0  0  0  0  0  0
  151.2127  173.3205  156.6939 C   0  0  0  0  0  0  0  0  0  0  0  0
  149.9885  172.8101  154.6297 N   0  0  0  0  0  0  0  0  0  0  0  0
  149.3561  173.0851  153.4099 C   0  0  0  0  0  0  0  0  0  0  0  0
  149.4699  172.2419  152.4832 O   0  0  0  0  0  0  0  0  0  0  0  0
  148.5608  174.3094  153.1442 C   0  0  1  0  0  0  0  0  0  0  0  0
  149.1730  175.2162  152.1251 C   0  0  0  0  0  0  0  0  0  0  0  0
  149.0475  174.7599  150.7833 N   0  0  0  0  0  0  0  0  0  0  0  0
  149.1859  175.9334  149.9090 C   0  0  0  0  0  0  0  0  0  0  0  0
  147.8074  174.0472  150.5088 C   0  0  2  0  0  0  0  0  0  0  0  0
  147.4822  174.0865  149.0605 C   0  0  0  0  0  0  0  0  0  0  0  0
  146.1079  173.6158  148.8003 C   0  0  0  0  0  0  0  0  0  0  0  0
  145.3969  173.1120  147.7039 C   0  0  0  0  0  0  0  0  0  0  0  0
  144.1218  172.8610  148.0946 N   0  0  0  0  0  0  0  0  0  0  0  0
  143.9441  173.1700  149.3922 C   0  0  0  0  0  0  0  0  0  0  0  0
  142.9089  173.1318  150.3017 C   0  0  0  0  0  0  0  0  0  0  0  0
  143.1227  173.5496  151.5900 C   0  0  0  0  0  0  0  0  0  0  0  0
  144.3814  174.0182  152.0056 C   0  0  0  0  0  0  0  0  0  0  0  0
  145.3998  174.0479  151.0833 C   0  0  0  0  0  0  0  0  0  0  0  0
  145.1871  173.6353  149.8101 C   0  0  0  0  0  0  0  0  0  0  0  0
  146.7618  174.5169  151.4561 C   0  0  1  0  0  0  0  0  0  0  0  0
  147.1305  173.9732  152.8465 C   0  0  0  0  0  0  0  0  0  0  0  0
  149.0038  174.0022  156.3686 O   0  0  0  0  0  0  0  0  0  0  0  0
  148.8999  175.3249  156.6950 C   0  0  1  0  0  0  0  0  0  0  0  0
  147.7100  175.8011  156.0953 O   0  0  0  0  0  0  0  0  0  0  0  0
  1  2  1  6
  2  3  1  0
  3  4  1  0
  4  5  1  0
  5  6  1  0
  6  7  2  0
  6  8  1  0
  8  9  1  1
  9 10  1  0
 10 11  2  0
 11 12  1  0
 12 13  2  0
 13 14  1  0
 14 15  2  0
  8 16  1  0
 16 17  1  0
 17 18  2  0
 17 19  1  0
 19 20  1  1
 19 21  1  0
 21 22  1  0
 22 23  2  0
 24 22  1  6
 24 25  1  0
 25 26  1  0
 26 27  1  0
 26 28  1  0
 28 29  1  6
 29 30  1  0
 30 31  2  0
 31 32  1  0
 32 33  1  0
 33 34  2  0
 34 35  1  0
 35 36  2  0
 36 37  1  0
 37 38  2  0
 37 39  1  0
 39 40  1  1
 19 41  1  0
 41 42  1  0
 42 43  1  6
  5  1  1  0
 15 10  1  0
 42 16  1  0
 42  1  1  0
 40 24  1  0
 39 28  1  0
 38 30  1  0
 38 33  1  0
M  END
$$$$
