
     RDKit          3D

 43 50  0  0  0  0  0  0  0  0999 V2000
  213.3344  157.9445  144.4731 C   0  0  2  0  0  0  0  0  0  0  0  0
  214.1073  157.2255  143.3602 C   0  0  0  0  0  0  0  0  0  0  0  0
  213.4937  155.8469  143.4129 C   0  0  0  0  0  0  0  0  0  0  0  0
  212.1532  156.0009  144.1208 C   0  0  0  0  0  0  0  0  0  0  0  0
  212.0055  157.4393  144.2567 N   0  0  0  0  0  0  0  0  0  0  0  0
  210.8489  158.2510  144.2022 C   0  0  0  0  0  0  0  0  0  0  0  0
  209.7317  157.7307  144.4410 O   0  0  0  0  0  0  0  0  0  0  0  0
  211.0224  159.6946  143.8606 C   0  0  2  0  0  0  0  0  0  0  0  0
  211.0941  159.7870  142.3512 C   0  0  0  0  0  0  0  0  0  0  0  0
  210.4720  161.0276  141.8448 C   0  0  0  0  0  0  0  0  0  0  0  0
  211.1402  161.7698  140.9045 C   0  0  0  0  0  0  0  0  0  0  0  0
  210.6152  162.9357  140.3922 C   0  0  0  0  0  0  0  0  0  0  0  0
  209.3969  163.3628  140.8330 C   0  0  0  0  0  0  0  0  0  0  0  0
  208.6927  162.6274  141.7905 C   0  0  0  0  0  0  0  0  0  0  0  0
  209.2454  161.4608  142.2864 C   0  0  0  0  0  0  0  0  0  0  0  0
  212.2307  160.1473  144.4931 N   0  0  0  0  0  0  0  0  0  0  0  0
  212.5466  161.2732  145.3274 C   0  0  0  0  0  0  0  0  0  0  0  0
  211.8833  162.3485  145.4097 O   0  0  0  0  0  0  0  0  0  0  0  0
  213.7905  160.8719  146.0345 C   0  0  2  0  0  0  0  0  0  0  0  0
  213.3647  160.1857  147.3164 C   0  0  0  0  0  0  0  0  0  0  0  0
  214.6735  161.9877  146.2868 N   0  0  0  0  0  0  0  0  0  0  0  0
  215.1535  162.8588  145.2998 C   0  0  0  0  0  0  0  0  0  0  0  0
  216.3669  163.1880  145.3430 O   0  0  0  0  0  0  0  0  0  0  0  0
  214.3186  163.4167  144.2071 C   0  0  1  0  0  0  0  0  0  0  0  0
  213.9712  164.8593  144.3909 C   0  0  0  0  0  0  0  0  0  0  0  0
  215.0414  165.7587  144.1260 N   0  0  0  0  0  0  0  0  0  0  0  0
  214.4458  167.0678  143.8227 C   0  0  0  0  0  0  0  0  0  0  0  0
  215.9312  165.3289  143.0560 C   0  0  2  0  0  0  0  0  0  0  0  0
  216.6492  166.4869  142.4658 C   0  0  0  0  0  0  0  0  0  0  0  0
  217.3383  166.1170  141.2142 C   0  0  0  0  0  0  0  0  0  0  0  0
  218.3942  166.6252  140.4473 C   0  0  0  0  0  0  0  0  0  0  0  0
  218.5612  165.8289  139.3612 N   0  0  0  0  0  0  0  0  0  0  0  0
  217.6740  164.8172  139.3625 C   0  0  0  0  0  0  0  0  0  0  0  0
  217.3744  163.7423  138.5531 C   0  0  0  0  0  0  0  0  0  0  0  0
  216.3538  162.8953  138.9012 C   0  0  0  0  0  0  0  0  0  0  0  0
  215.6028  163.1004  140.0719 C   0  0  0  0  0  0  0  0  0  0  0  0
  215.9180  164.1778  140.8649 C   0  0  0  0  0  0  0  0  0  0  0  0
  216.9264  165.0145  140.5194 C   0  0  0  0  0  0  0  0  0  0  0  0
  215.1761  164.4479  142.1261 C   0  0  1  0  0  0  0  0  0  0  0  0
  214.9167  163.1239  142.8640 C   0  0  0  0  0  0  0  0  0  0  0  0
  214.3730  159.9388  145.2255 O   0  0  0  0  0  0  0  0  0  0  0  0
  213.4538  159.4295  144.3522 C   0  0  1  0  0  0  0  0  0  0  0  0
  213.9387  159.6933  143.0492 O   0  0  0  0  0  0  0  0  0  0  0  0
  1  2  1  6
  2  3  1  0
  3  4  1  0
  4  5  1  0
  5  6  1  0
  6  7  2  0
  6  8  1  0
  8  9  1  6
  9 10  1  0
 10 11  2  0
 11 12  1  0
 12 13  2  0
 13 14  1  0
 14 15  2  0
  8 16  1  0
 16 17  1  0
 17 18  2  0
 17 19  1  0
 19 20  1  1
 19 21  1  0
 21 22  1  0
 22 23  2  0
 24 22  1  1
 24 25  1  0
 25 26  1  0
 26 27  1  0
 26 28  1  0
 28 29  1  6
 29 30  1  0
 30 31  2  0
 31 32  1  0
 32 33  1  0
 33 34  2  0
 34 35  1  0
 35 36  2  0
 36 37  1  0
 37 38  2  0
 37 39  1  0
 39 40  1  1
 19 41  1  0
 41 42  1  0
 42 43  1  6
  5  1  1  0
 15 10  1  0
 42 16  1  0
 42  1  1  0
 40 24  1  0
 39 28  1  0
 38 30  1  0
 38 33  1  0
M  END
$$$$
