
     RDKit          3D

 43 50  0  0  0  0  0  0  0  0999 V2000
  127.9338  143.0079  132.6477 C   0  0  2  0  0  0  0  0  0  0  0  0
  127.3798  143.8922  131.5234 C   0  0  0  0  0  0  0  0  0  0  0  0
  127.7587  145.2696  132.0124 C   0  0  0  0  0  0  0  0  0  0  0  0
  128.8799  145.0717  133.0250 C   0  0  0  0  0  0  0  0  0  0  0  0
  129.1887  143.6568  132.9159 N   0  0  0  0  0  0  0  0  0  0  0  0
  130.4228  142.9763  133.0330 C   0  0  0  0  0  0  0  0  0  0  0  0
  131.3563  143.5201  133.6725 O   0  0  0  0  0  0  0  0  0  0  0  0
  130.5479  141.6371  132.3838 C   0  0  2  0  0  0  0  0  0  0  0  0
  130.8807  141.8805  130.9270 C   0  0  0  0  0  0  0  0  0  0  0  0
  132.2141  141.3536  130.5707 C   0  0  0  0  0  0  0  0  0  0  0  0
  132.4267  139.9993  130.6151 C   0  0  0  0  0  0  0  0  0  0  0  0
  133.6462  139.4446  130.2951 C   0  0  0  0  0  0  0  0  0  0  0  0
  134.6701  140.2663  129.9239 C   0  0  0  0  0  0  0  0  0  0  0  0
  134.4831  141.6503  129.8695 C   0  0  0  0  0  0  0  0  0  0  0  0
  133.2473  142.1779  130.1965 C   0  0  0  0  0  0  0  0  0  0  0  0
  129.2939  140.9557  132.5507 N   0  0  0  0  0  0  0  0  0  0  0  0
  128.9358  139.6491  133.0281 C   0  0  0  0  0  0  0  0  0  0  0  0
  129.7001  138.6413  133.0840 O   0  0  0  0  0  0  0  0  0  0  0  0
  127.5082  139.7771  133.4204 C   0  0  2  0  0  0  0  0  0  0  0  0
  127.4889  140.1907  134.8778 C   0  0  0  0  0  0  0  0  0  0  0  0
  126.7562  138.5642  133.1932 N   0  0  0  0  0  0  0  0  0  0  0  0
  127.2527  137.4356  132.5276 C   0  0  0  0  0  0  0  0  0  0  0  0
  126.4229  136.6323  132.0289 O   0  0  0  0  0  0  0  0  0  0  0  0
  128.6968  137.1297  132.3753 C   0  0  1  0  0  0  0  0  0  0  0  0
  129.1112  135.8438  133.0157 C   0  0  0  0  0  0  0  0  0  0  0  0
  128.7181  134.6787  132.3000 N   0  0  0  0  0  0  0  0  0  0  0  0
  129.6109  133.5883  132.7179 C   0  0  0  0  0  0  0  0  0  0  0  0
  128.7278  134.8361  130.8521 C   0  0  2  0  0  0  0  0  0  0  0  0
  128.8567  133.5202  130.1762 C   0  0  0  0  0  0  0  0  0  0  0  0
  129.1433  133.6756  128.7369 C   0  0  0  0  0  0  0  0  0  0  0  0
  129.0211  132.8876  127.5856 C   0  0  0  0  0  0  0  0  0  0  0  0
  129.4775  133.5998  126.5244 N   0  0  0  0  0  0  0  0  0  0  0  0
  129.8972  134.8201  126.9058 C   0  0  0  0  0  0  0  0  0  0  0  0
  130.4389  135.9321  126.2972 C   0  0  0  0  0  0  0  0  0  0  0  0
  130.7513  137.0334  127.0520 C   0  0  0  0  0  0  0  0  0  0  0  0
  130.5296  137.0531  128.4402 C   0  0  0  0  0  0  0  0  0  0  0  0
  129.9885  135.9342  129.0271 C   0  0  0  0  0  0  0  0  0  0  0  0
  129.6809  134.8462  128.2801 C   0  0  0  0  0  0  0  0  0  0  0  0
  129.7123  135.8895  130.4884 C   0  0  1  0  0  0  0  0  0  0  0  0
  129.1256  137.2364  130.9427 C   0  0  0  0  0  0  0  0  0  0  0  0
  127.0280  140.8168  132.6767 O   0  0  0  0  0  0  0  0  0  0  0  0
  128.0597  141.5834  132.2130 C   0  0  1  0  0  0  0  0  0  0  0  0
  127.9684  141.5799  130.8009 O   0  0  0  0  0  0  0  0  0  0  0  0
  1  2  1  6
  2  3  1  0
  3  4  1  0
  4  5  1  0
  5  6  1  0
  6  7  2  0
  6  8  1  0
  8  9  1  6
  9 10  1  0
 10 11  2  0
 11 12  1  0
 12 13  2  0
 13 14  1  0
 14 15  2  0
  8 16  1  0
 16 17  1  0
 17 18  2  0
 17 19  1  0
 19 20  1  1
 19 21  1  0
 21 22  1  0
 22 23  2  0
 24 22  1  6
 24 25  1  0
 25 26  1  0
 26 27  1  0
 26 28  1  0
 28 29  1  6
 29 30  1  0
 30 31  2  0
 31 32  1  0
 32 33  1  0
 33 34  2  0
 34 35  1  0
 35 36  2  0
 36 37  1  0
 37 38  2  0
 37 39  1  0
 39 40  1  6
 19 41  1  0
 41 42  1  0
 42 43  1  6
  5  1  1  0
 15 10  1  0
 42 16  1  0
 42  1  1  0
 40 24  1  0
 39 28  1  0
 38 30  1  0
 38 33  1  0
M  END
$$$$
