
     RDKit          3D

 43 50  0  0  0  0  0  0  0  0999 V2000
  200.4036  139.7510  131.7884 C   0  0  2  0  0  0  0  0  0  0  0  0
  199.3479  139.4361  130.7210 C   0  0  0  0  0  0  0  0  0  0  0  0
  198.8560  140.8198  130.3700 C   0  0  0  0  0  0  0  0  0  0  0  0
  199.9411  141.7886  130.8234 C   0  0  0  0  0  0  0  0  0  0  0  0
  201.0305  140.9144  131.2215 N   0  0  0  0  0  0  0  0  0  0  0  0
  202.4299  141.0868  131.1141 C   0  0  0  0  0  0  0  0  0  0  0  0
  202.8917  142.2505  131.0216 O   0  0  0  0  0  0  0  0  0  0  0  0
  203.2879  139.8642  131.1168 C   0  0  2  0  0  0  0  0  0  0  0  0
  203.2985  139.3276  129.7012 C   0  0  0  0  0  0  0  0  0  0  0  0
  204.0193  140.2264  128.7764 C   0  0  0  0  0  0  0  0  0  0  0  0
  205.3864  140.3044  128.8568 C   0  0  0  0  0  0  0  0  0  0  0  0
  206.1174  141.1227  128.0241 C   0  0  0  0  0  0  0  0  0  0  0  0
  205.4622  141.8759  127.0941 C   0  0  0  0  0  0  0  0  0  0  0  0
  204.0697  141.8172  126.9889 C   0  0  0  0  0  0  0  0  0  0  0  0
  203.3629  140.9862  127.8389 C   0  0  0  0  0  0  0  0  0  0  0  0
  202.7134  138.9337  132.0490 N   0  0  0  0  0  0  0  0  0  0  0  0
  203.2506  138.1719  133.1420 C   0  0  0  0  0  0  0  0  0  0  0  0
  204.4691  137.8749  133.3148 O   0  0  0  0  0  0  0  0  0  0  0  0
  202.0674  137.8382  133.9768 C   0  0  2  0  0  0  0  0  0  0  0  0
  201.9105  138.9592  134.9838 C   0  0  0  0  0  0  0  0  0  0  0  0
  202.1830  136.5483  134.6181 N   0  0  0  0  0  0  0  0  0  0  0  0
  203.3969  135.9418  134.9676 C   0  0  0  0  0  0  0  0  0  0  0  0
  204.0264  136.4065  135.9526 O   0  0  0  0  0  0  0  0  0  0  0  0
  203.9851  134.7854  134.2472 C   0  0  1  0  0  0  0  0  0  0  0  0
  205.4756  134.7122  134.3407 C   0  0  0  0  0  0  0  0  0  0  0  0
  205.9628  134.2639  135.6002 N   0  0  0  0  0  0  0  0  0  0  0  0
  207.3195  133.7418  135.3820 C   0  0  0  0  0  0  0  0  0  0  0  0
  205.1180  133.2697  136.2474 C   0  0  2  0  0  0  0  0  0  0  0  0
  205.8980  132.4628  137.2197 C   0  0  0  0  0  0  0  0  0  0  0  0
  205.1383  131.2837  137.6787 C   0  0  0  0  0  0  0  0  0  0  0  0
  205.1779  130.4133  138.7752 C   0  0  0  0  0  0  0  0  0  0  0  0
  204.1981  129.4863  138.6261 N   0  0  0  0  0  0  0  0  0  0  0  0
  203.5072  129.6915  137.4898 C   0  0  0  0  0  0  0  0  0  0  0  0
  202.4488  129.0978  136.8360 C   0  0  0  0  0  0  0  0  0  0  0  0
  202.0101  129.6171  135.6452 C   0  0  0  0  0  0  0  0  0  0  0  0
  202.6195  130.7480  135.0739 C   0  0  0  0  0  0  0  0  0  0  0  0
  203.6729  131.3248  135.7420 C   0  0  0  0  0  0  0  0  0  0  0  0
  204.1059  130.8102  136.9185 C   0  0  0  0  0  0  0  0  0  0  0  0
  204.3559  132.5327  135.2048 C   0  0  1  0  0  0  0  0  0  0  0  0
  203.3094  133.5044  134.6343 C   0  0  0  0  0  0  0  0  0  0  0  0
  201.0049  137.8837  133.1203 O   0  0  0  0  0  0  0  0  0  0  0  0
  201.3294  138.5969  132.0009 C   0  0  1  0  0  0  0  0  0  0  0  0
  201.1549  137.7276  130.8981 O   0  0  0  0  0  0  0  0  0  0  0  0
  1  2  1  6
  2  3  1  0
  3  4  1  0
  4  5  1  0
  5  6  1  0
  6  7  2  0
  6  8  1  0
  8  9  1  6
  9 10  1  0
 10 11  2  0
 11 12  1  0
 12 13  2  0
 13 14  1  0
 14 15  2  0
  8 16  1  0
 16 17  1  0
 17 18  2  0
 17 19  1  0
 19 20  1  1
 19 21  1  0
 21 22  1  0
 22 23  2  0
 24 22  1  1
 24 25  1  0
 25 26  1  0
 26 27  1  0
 26 28  1  0
 28 29  1  6
 29 30  1  0
 30 31  2  0
 31 32  1  0
 32 33  1  0
 33 34  2  0
 34 35  1  0
 35 36  2  0
 36 37  1  0
 37 38  2  0
 37 39  1  0
 39 40  1  1
 19 41  1  0
 41 42  1  0
 42 43  1  6
  5  1  1  0
 15 10  1  0
 42 16  1  0
 42  1  1  0
 40 24  1  0
 39 28  1  0
 38 30  1  0
 38 33  1  0
M  END
$$$$
