
     RDKit          3D

 42 47  0  0  0  0  0  0  0  0999 V2000
  132.3297  143.0878  138.0202 C   0  0  0  0  0  0  0  0  0  0  0  0
  130.8646  142.7909  137.6675 C   0  0  0  0  0  0  0  0  0  0  0  0
  130.3663  141.6848  138.5510 C   0  0  0  0  0  0  0  0  0  0  0  0
  130.8209  142.4926  136.2141 C   0  0  0  0  0  0  0  0  0  0  0  0
  129.5101  142.9416  135.5425 C   0  0  0  0  0  0  0  0  0  0  0  0
  129.3644  144.4445  135.5311 C   0  0  0  0  0  0  0  0  0  0  0  0
  130.3091  144.9099  136.6149 C   0  0  0  0  0  0  0  0  0  0  0  0
  130.1171  144.0791  137.8935 C   0  0  0  0  0  0  0  0  0  0  0  0
  129.8897  144.8943  134.2834 N   0  0  0  0  0  0  0  0  0  0  0  0
  128.9058  145.3967  133.4126 C   0  0  2  0  0  0  0  0  0  0  0  0
  127.7853  145.7072  134.3283 C   0  0  2  0  0  0  0  0  0  0  0  0
  127.6483  147.1727  134.4406 C   0  0  0  0  0  0  0  0  0  0  0  0
  126.4746  147.8493  134.1272 C   0  0  0  0  0  0  0  0  0  0  0  0
  125.3657  147.1700  133.7415 F   0  0  0  0  0  0  0  0  0  0  0  0
  126.3613  149.2212  134.2107 C   0  0  0  0  0  0  0  0  0  0  0  0
  124.8337  150.0078  133.7935 Cl  0  0  0  0  0  0  0  0  0  0  0  0
  127.4249  149.9492  134.6124 N   0  0  0  0  0  0  0  0  0  0  0  0
  128.5889  149.3506  134.9304 C   0  0  0  0  0  0  0  0  0  0  0  0
  128.7146  147.9851  134.8510 C   0  0  0  0  0  0  0  0  0  0  0  0
  127.9880  144.9562  135.6330 C   0  0  2  0  0  0  0  0  0  0  0  0
  127.6603  145.8279  136.7107 C   0  0  0  0  0  0  0  0  0  0  0  0
  128.1618  146.9409  137.1273 O   0  0  0  0  0  0  0  0  0  0  0  0
  126.5620  145.3133  137.4233 N   0  0  0  0  0  0  0  0  0  0  0  0
  126.1511  144.1424  136.7266 C   0  0  0  0  0  0  0  0  0  0  0  0
  125.0717  143.2669  136.9925 C   0  0  0  0  0  0  0  0  0  0  0  0
  124.8265  142.2047  136.1552 C   0  0  0  0  0  0  0  0  0  0  0  0
  123.4843  141.1243  136.4944 Cl  0  0  0  0  0  0  0  0  0  0  0  0
  125.6447  142.0105  135.0612 C   0  0  0  0  0  0  0  0  0  0  0  0
  126.6997  142.8310  134.7659 C   0  0  0  0  0  0  0  0  0  0  0  0
  126.9303  143.9156  135.6443 C   0  0  0  0  0  0  0  0  0  0  0  0
  128.6047  144.6230  132.2034 C   0  0  0  0  0  0  0  0  0  0  0  0
  128.7868  143.3661  132.2707 O   0  0  0  0  0  0  0  0  0  0  0  0
  128.1356  145.2396  131.0190 N   0  0  0  0  0  0  0  0  0  0  0  0
  128.9174  145.1676  129.8307 C   0  0  2  0  0  0  0  0  0  0  0  0
  128.9747  146.5113  129.1298 C   0  0  0  0  0  0  0  0  0  0  0  0
  128.6740  146.4242  127.6686 C   0  0  0  0  0  0  0  0  0  0  0  0
  129.2810  145.2243  127.0037 C   0  0  2  0  0  0  0  0  0  0  0  0
  129.3127  144.0969  127.7878 O   0  0  0  0  0  0  0  0  0  0  0  0
  128.3795  144.1786  128.8203 C   0  0  0  0  0  0  0  0  0  0  0  0
  130.6398  145.5458  126.4390 C   0  0  0  0  0  0  0  0  0  0  0  0
  130.9901  145.1173  125.1367 N   0  0  0  0  0  0  0  0  0  0  0  0
  131.4197  146.1993  127.1755 O   0  0  0  0  0  0  0  0  0  0  0  0
  1  2  1  0
  2  3  1  0
  2  4  1  0
  4  5  1  0
  5  6  1  0
  6  7  1  0
  7  8  1  0
  6  9  1  0
  9 10  1  0
 10 11  1  0
 11 12  1  1
 12 13  2  0
 13 14  1  0
 13 15  1  0
 15 16  1  0
 15 17  2  0
 17 18  1  0
 18 19  2  0
 11 20  1  0
 20 21  1  0
 21 22  2  0
 21 23  1  0
 23 24  1  0
 24 25  2  0
 25 26  1  0
 26 27  1  0
 26 28  2  0
 28 29  1  0
 29 30  2  0
 10 31  1  6
 31 32  2  0
 31 33  1  0
 34 33  1  1
 34 35  1  0
 35 36  1  0
 36 37  1  0
 37 38  1  0
 38 39  1  0
 37 40  1  1
 40 41  1  0
 40 42  2  0
  8  2  1  0
 19 12  1  0
 30 20  1  0
 39 34  1  0
 20  6  1  1
 30 24  1  0
M  END
$$$$
