
     RDKit          3D

 42 47  0  0  0  0  0  0  0  0999 V2000
  194.9823  154.6203  121.7241 C   0  0  0  0  0  0  0  0  0  0  0  0
  195.0452  156.1548  121.7434 C   0  0  0  0  0  0  0  0  0  0  0  0
  196.2444  156.5825  122.5379 C   0  0  0  0  0  0  0  0  0  0  0  0
  193.7448  156.6349  122.2742 C   0  0  0  0  0  0  0  0  0  0  0  0
  193.3023  157.9796  121.6685 C   0  0  0  0  0  0  0  0  0  0  0  0
  192.9852  157.8620  120.1969 C   0  0  0  0  0  0  0  0  0  0  0  0
  193.6946  156.5972  119.7718 C   0  0  0  0  0  0  0  0  0  0  0  0
  195.1371  156.5816  120.3016 C   0  0  0  0  0  0  0  0  0  0  0  0
  191.5828  157.6188  120.1015 N   0  0  0  0  0  0  0  0  0  0  0  0
  190.8658  158.6974  119.5525 C   0  0  2  0  0  0  0  0  0  0  0  0
  191.9162  159.4625  118.8442 C   0  0  2  0  0  0  0  0  0  0  0  0
  191.7228  159.3101  117.3886 C   0  0  0  0  0  0  0  0  0  0  0  0
  191.4001  160.3735  116.5526 C   0  0  0  0  0  0  0  0  0  0  0  0
  191.2938  161.6331  117.0442 F   0  0  0  0  0  0  0  0  0  0  0  0
  191.1965  160.2195  115.1973 C   0  0  0  0  0  0  0  0  0  0  0  0
  190.7879  161.6219  114.2012 Cl  0  0  0  0  0  0  0  0  0  0  0  0
  191.3127  158.9924  114.6465 N   0  0  0  0  0  0  0  0  0  0  0  0
  191.6241  157.9236  115.4048 C   0  0  0  0  0  0  0  0  0  0  0  0
  191.8290  158.0637  116.7558 C   0  0  0  0  0  0  0  0  0  0  0  0
  193.2765  159.0520  119.3810 C   0  0  2  0  0  0  0  0  0  0  0  0
  194.1751  158.9254  118.2832 C   0  0  0  0  0  0  0  0  0  0  0  0
  194.2058  158.1472  117.2550 O   0  0  0  0  0  0  0  0  0  0  0  0
  195.2141  159.8657  118.4065 N   0  0  0  0  0  0  0  0  0  0  0  0
  194.9106  160.6427  119.5594 C   0  0  0  0  0  0  0  0  0  0  0  0
  195.6035  161.7463  120.1113 C   0  0  0  0  0  0  0  0  0  0  0  0
  195.1048  162.3848  121.2217 C   0  0  0  0  0  0  0  0  0  0  0  0
  195.9724  163.7534  121.8984 Cl  0  0  0  0  0  0  0  0  0  0  0  0
  193.9273  161.9339  121.7823 C   0  0  0  0  0  0  0  0  0  0  0  0
  193.2246  160.8708  121.2829 C   0  0  0  0  0  0  0  0  0  0  0  0
  193.7604  160.2312  120.1405 C   0  0  0  0  0  0  0  0  0  0  0  0
  189.9621  159.4384  120.4389 C   0  0  0  0  0  0  0  0  0  0  0  0
  190.1402  160.6955  120.5130 O   0  0  0  0  0  0  0  0  0  0  0  0
  188.9424  158.7916  121.1769 N   0  0  0  0  0  0  0  0  0  0  0  0
  187.7131  158.4606  120.5381 C   0  0  2  0  0  0  0  0  0  0  0  0
  187.9513  157.8859  119.1550 C   0  0  0  0  0  0  0  0  0  0  0  0
  187.1014  158.5197  118.1019 C   0  0  0  0  0  0  0  0  0  0  0  0
  185.6960  158.7910  118.5508 C   0  0  2  0  0  0  0  0  0  0  0  0
  185.5832  159.1615  119.8688 O   0  0  0  0  0  0  0  0  0  0  0  0
  186.7946  159.6488  120.3573 C   0  0  0  0  0  0  0  0  0  0  0  0
  184.7877  157.6358  118.2196 C   0  0  0  0  0  0  0  0  0  0  0  0
  184.1416  156.9180  119.2536 N   0  0  0  0  0  0  0  0  0  0  0  0
  184.6443  157.3582  117.0031 O   0  0  0  0  0  0  0  0  0  0  0  0
  1  2  1  0
  2  3  1  0
  2  4  1  0
  4  5  1  0
  5  6  1  0
  6  7  1  0
  7  8  1  0
  6  9  1  0
  9 10  1  0
 10 11  1  0
 11 12  1  6
 12 13  2  0
 13 14  1  0
 13 15  1  0
 15 16  1  0
 15 17  2  0
 17 18  1  0
 18 19  2  0
 11 20  1  0
 20 21  1  0
 21 22  2  0
 21 23  1  0
 23 24  1  0
 24 25  2  0
 25 26  1  0
 26 27  1  0
 26 28  2  0
 28 29  1  0
 29 30  2  0
 10 31  1  1
 31 32  2  0
 31 33  1  0
 34 33  1  6
 34 35  1  0
 35 36  1  0
 36 37  1  0
 37 38  1  0
 38 39  1  0
 37 40  1  1
 40 41  1  0
 40 42  2  0
  8  2  1  0
 19 12  1  0
 30 20  1  0
 39 34  1  0
 20  6  1  1
 30 24  1  0
M  END
$$$$
