
     RDKit          3D

 42 47  0  0  0  0  0  0  0  0999 V2000
  166.7101  153.9490  129.6050 C   0  0  0  0  0  0  0  0  0  0  0  0
  165.7690  153.2553  128.6089 C   0  0  0  0  0  0  0  0  0  0  0  0
  164.6848  154.2152  128.2148 C   0  0  0  0  0  0  0  0  0  0  0  0
  165.2900  152.0105  129.2606 C   0  0  0  0  0  0  0  0  0  0  0  0
  165.0390  150.8632  128.2649 C   0  0  0  0  0  0  0  0  0  0  0  0
  166.3175  150.3778  127.6246 C   0  0  0  0  0  0  0  0  0  0  0  0
  167.2831  151.5224  127.8270 C   0  0  0  0  0  0  0  0  0  0  0  0
  166.6290  152.8576  127.4379 C   0  0  0  0  0  0  0  0  0  0  0  0
  166.7785  149.2840  128.4159 N   0  0  0  0  0  0  0  0  0  0  0  0
  166.6888  148.0435  127.7588 C   0  0  2  0  0  0  0  0  0  0  0  0
  166.6073  148.4328  126.3333 C   0  0  2  0  0  0  0  0  0  0  0  0
  167.8727  148.0729  125.6635 C   0  0  0  0  0  0  0  0  0  0  0  0
  167.9359  147.1955  124.5866 C   0  0  0  0  0  0  0  0  0  0  0  0
  166.8056  146.6581  124.0640 F   0  0  0  0  0  0  0  0  0  0  0  0
  169.1244  146.8443  123.9814 C   0  0  0  0  0  0  0  0  0  0  0  0
  169.1216  145.7207  122.6164 Cl  0  0  0  0  0  0  0  0  0  0  0  0
  170.2807  147.3667  124.4426 N   0  0  0  0  0  0  0  0  0  0  0  0
  170.2836  148.2229  125.4824 C   0  0  0  0  0  0  0  0  0  0  0  0
  169.1067  148.5802  126.0939 C   0  0  0  0  0  0  0  0  0  0  0  0
  166.1974  149.8925  126.2402 C   0  0  2  0  0  0  0  0  0  0  0  0
  166.9791  150.5167  125.2263 C   0  0  0  0  0  0  0  0  0  0  0  0
  168.2441  150.7331  125.0972 O   0  0  0  0  0  0  0  0  0  0  0  0
  166.1429  150.9649  124.1876 N   0  0  0  0  0  0  0  0  0  0  0  0
  164.8277  150.5397  124.5261 C   0  0  0  0  0  0  0  0  0  0  0  0
  163.6178  150.6924  123.8085 C   0  0  0  0  0  0  0  0  0  0  0  0
  162.4520  150.1607  124.3065 C   0  0  0  0  0  0  0  0  0  0  0  0
  160.9560  150.3558  123.4077 Cl  0  0  0  0  0  0  0  0  0  0  0  0
  162.4839  149.4819  125.5074 C   0  0  0  0  0  0  0  0  0  0  0  0
  163.6303  149.3107  126.2352 C   0  0  0  0  0  0  0  0  0  0  0  0
  164.8154  149.8686  125.7007 C   0  0  0  0  0  0  0  0  0  0  0  0
  165.7074  147.0751  128.2590 C   0  0  0  0  0  0  0  0  0  0  0  0
  164.7661  146.7557  127.4655 O   0  0  0  0  0  0  0  0  0  0  0  0
  165.7985  146.5217  129.5584 N   0  0  0  0  0  0  0  0  0  0  0  0
  164.6569  146.5329  130.4099 C   0  0  2  0  0  0  0  0  0  0  0  0
  164.9853  147.1424  131.7593 C   0  0  0  0  0  0  0  0  0  0  0  0
  164.5139  146.3120  132.9087 C   0  0  0  0  0  0  0  0  0  0  0  0
  163.1614  145.7010  132.6900 C   0  0  2  0  0  0  0  0  0  0  0  0
  162.9140  145.3202  131.3936 O   0  0  0  0  0  0  0  0  0  0  0  0
  164.1031  145.1524  130.6855 C   0  0  0  0  0  0  0  0  0  0  0  0
  162.0705  146.5918  133.2244 C   0  0  0  0  0  0  0  0  0  0  0  0
  162.3755  147.6102  134.1582 N   0  0  0  0  0  0  0  0  0  0  0  0
  160.9072  146.3797  132.8011 O   0  0  0  0  0  0  0  0  0  0  0  0
  1  2  1  0
  2  3  1  0
  2  4  1  0
  4  5  1  0
  5  6  1  0
  6  7  1  0
  7  8  1  0
  6  9  1  0
  9 10  1  0
 10 11  1  0
 11 12  1  1
 12 13  2  0
 13 14  1  0
 13 15  1  0
 15 16  1  0
 15 17  2  0
 17 18  1  0
 18 19  2  0
 11 20  1  0
 20 21  1  0
 21 22  2  0
 21 23  1  0
 23 24  1  0
 24 25  2  0
 25 26  1  0
 26 27  1  0
 26 28  2  0
 28 29  1  0
 29 30  2  0
 10 31  1  1
 31 32  2  0
 31 33  1  0
 34 33  1  6
 34 35  1  0
 35 36  1  0
 36 37  1  0
 37 38  1  0
 38 39  1  0
 37 40  1  6
 40 41  1  0
 40 42  2  0
  8  2  1  0
 19 12  1  0
 30 20  1  0
 39 34  1  0
 20  6  1  1
 30 24  1  0
M  END
$$$$
