
     RDKit          3D

 42 47  0  0  0  0  0  0  0  0999 V2000
  133.6787  165.3439  150.2932 C   0  0  0  0  0  0  0  0  0  0  0  0
  133.2469  166.6078  149.5349 C   0  0  0  0  0  0  0  0  0  0  0  0
  134.1114  167.7550  149.9696 C   0  0  0  0  0  0  0  0  0  0  0  0
  131.7962  166.7917  149.7900 C   0  0  0  0  0  0  0  0  0  0  0  0
  131.0476  167.4250  148.6029 C   0  0  0  0  0  0  0  0  0  0  0  0
  131.0136  166.5113  147.4011 C   0  0  0  0  0  0  0  0  0  0  0  0
  132.1445  165.5404  147.6502 C   0  0  0  0  0  0  0  0  0  0  0  0
  133.4181  166.2897  148.0724 C   0  0  0  0  0  0  0  0  0  0  0  0
  129.7933  165.7771  147.4831 N   0  0  0  0  0  0  0  0  0  0  0  0
  128.8637  166.1275  146.4871 C   0  0  2  0  0  0  0  0  0  0  0  0
  129.7118  166.7706  145.4588 C   0  0  2  0  0  0  0  0  0  0  0  0
  129.8022  165.8803  144.2848 C   0  0  0  0  0  0  0  0  0  0  0  0
  129.4015  166.2657  143.0102 C   0  0  0  0  0  0  0  0  0  0  0  0
  128.9445  167.5214  142.7781 F   0  0  0  0  0  0  0  0  0  0  0  0
  129.4657  165.4203  141.9224 C   0  0  0  0  0  0  0  0  0  0  0  0
  128.9358  165.9852  140.3331 Cl  0  0  0  0  0  0  0  0  0  0  0  0
  129.9352  164.1653  142.0872 N   0  0  0  0  0  0  0  0  0  0  0  0
  130.3392  163.7343  143.2978 C   0  0  0  0  0  0  0  0  0  0  0  0
  130.2799  164.5665  144.3890 C   0  0  0  0  0  0  0  0  0  0  0  0
  131.0330  167.1772  146.0885 C   0  0  2  0  0  0  0  0  0  0  0  0
  132.0821  166.8635  145.1778 C   0  0  0  0  0  0  0  0  0  0  0  0
  132.5157  165.7549  144.6812 O   0  0  0  0  0  0  0  0  0  0  0  0
  132.7366  168.0434  144.7795 N   0  0  0  0  0  0  0  0  0  0  0  0
  132.0291  169.1153  145.3925 C   0  0  0  0  0  0  0  0  0  0  0  0
  132.2421  170.5106  145.2923 C   0  0  0  0  0  0  0  0  0  0  0  0
  131.4025  171.3822  145.9441 C   0  0  0  0  0  0  0  0  0  0  0  0
  131.6757  173.1119  145.8130 Cl  0  0  0  0  0  0  0  0  0  0  0  0
  130.3582  170.8756  146.6904 C   0  0  0  0  0  0  0  0  0  0  0  0
  130.1150  169.5345  146.8157 C   0  0  0  0  0  0  0  0  0  0  0  0
  130.9946  168.6598  146.1358 C   0  0  0  0  0  0  0  0  0  0  0  0
  127.6469  166.8312  146.9060 C   0  0  0  0  0  0  0  0  0  0  0  0
  127.3444  167.8826  146.2574 O   0  0  0  0  0  0  0  0  0  0  0  0
  126.8468  166.3680  147.9776 N   0  0  0  0  0  0  0  0  0  0  0  0
  125.4527  166.1577  147.7755 C   0  0  2  0  0  0  0  0  0  0  0  0
  125.1833  165.5326  146.4202 C   0  0  0  0  0  0  0  0  0  0  0  0
  124.1073  166.2321  145.6548 C   0  0  0  0  0  0  0  0  0  0  0  0
  122.9498  166.6615  146.5070 C   0  0  2  0  0  0  0  0  0  0  0  0
  123.2974  167.0688  147.7720 O   0  0  0  0  0  0  0  0  0  0  0  0
  124.6417  167.4335  147.8290 C   0  0  0  0  0  0  0  0  0  0  0  0
  121.8779  165.6038  146.5396 C   0  0  0  0  0  0  0  0  0  0  0  0
  121.8197  164.6808  147.6105 N   0  0  0  0  0  0  0  0  0  0  0  0
  121.0626  165.5932  145.5842 O   0  0  0  0  0  0  0  0  0  0  0  0
  1  2  1  0
  2  3  1  0
  2  4  1  0
  4  5  1  0
  5  6  1  0
  6  7  1  0
  7  8  1  0
  6  9  1  0
  9 10  1  0
 10 11  1  0
 11 12  1  6
 12 13  2  0
 13 14  1  0
 13 15  1  0
 15 16  1  0
 15 17  2  0
 17 18  1  0
 18 19  2  0
 11 20  1  0
 20 21  1  0
 21 22  2  0
 21 23  1  0
 23 24  1  0
 24 25  2  0
 25 26  1  0
 26 27  1  0
 26 28  2  0
 28 29  1  0
 29 30  2  0
 10 31  1  1
 31 32  2  0
 31 33  1  0
 34 33  1  6
 34 35  1  0
 35 36  1  0
 36 37  1  0
 37 38  1  0
 38 39  1  0
 37 40  1  1
 40 41  1  0
 40 42  2  0
  8  2  1  0
 19 12  1  0
 30 20  1  0
 39 34  1  0
 20  6  1  1
 30 24  1  0
M  END
$$$$
