
     RDKit          3D

 42 47  0  0  0  0  0  0  0  0999 V2000
  134.7285  136.7100  129.5489 C   0  0  0  0  0  0  0  0  0  0  0  0
  134.4666  137.0186  131.0305 C   0  0  0  0  0  0  0  0  0  0  0  0
  135.6988  136.6885  131.8212 C   0  0  0  0  0  0  0  0  0  0  0  0
  133.2540  136.2582  131.4237 C   0  0  0  0  0  0  0  0  0  0  0  0
  132.4075  136.9767  132.4904 C   0  0  0  0  0  0  0  0  0  0  0  0
  131.7891  138.2488  131.9618 C   0  0  0  0  0  0  0  0  0  0  0  0
  132.6322  138.5888  130.7545 C   0  0  0  0  0  0  0  0  0  0  0  0
  134.1279  138.4851  131.0924 C   0  0  0  0  0  0  0  0  0  0  0  0
  130.4876  137.9030  131.4912 N   0  0  0  0  0  0  0  0  0  0  0  0
  129.4503  138.4389  132.2758 C   0  0  2  0  0  0  0  0  0  0  0  0
  130.1198  139.5484  132.9907 C   0  0  2  0  0  0  0  0  0  0  0  0
  129.6301  140.8325  132.4518 C   0  0  0  0  0  0  0  0  0  0  0  0
  129.2835  141.9096  133.2601 C   0  0  0  0  0  0  0  0  0  0  0  0
  129.4297  141.8399  134.6067 F   0  0  0  0  0  0  0  0  0  0  0  0
  128.8031  143.0979  132.7511 C   0  0  0  0  0  0  0  0  0  0  0  0
  128.3833  144.4214  133.8457 Cl  0  0  0  0  0  0  0  0  0  0  0  0
  128.6591  143.2350  131.4158 N   0  0  0  0  0  0  0  0  0  0  0  0
  128.9789  142.2271  130.5813 C   0  0  0  0  0  0  0  0  0  0  0  0
  129.4580  141.0386  131.0758 C   0  0  0  0  0  0  0  0  0  0  0  0
  131.6230  139.3359  132.9401 C   0  0  2  0  0  0  0  0  0  0  0  0
  132.2473  140.5898  132.6821 C   0  0  0  0  0  0  0  0  0  0  0  0
  132.2026  141.4078  131.6857 O   0  0  0  0  0  0  0  0  0  0  0  0
  133.0624  140.9498  133.7707 N   0  0  0  0  0  0  0  0  0  0  0  0
  132.8775  139.9392  134.7554 C   0  0  0  0  0  0  0  0  0  0  0  0
  133.4290  139.8339  136.0542 C   0  0  0  0  0  0  0  0  0  0  0  0
  133.0784  138.7815  136.8661 C   0  0  0  0  0  0  0  0  0  0  0  0
  133.7686  138.6605  138.4763 Cl  0  0  0  0  0  0  0  0  0  0  0  0
  132.1871  137.8393  136.3952 C   0  0  0  0  0  0  0  0  0  0  0  0
  131.6298  137.9007  135.1466 C   0  0  0  0  0  0  0  0  0  0  0  0
  132.0085  138.9931  134.3314 C   0  0  0  0  0  0  0  0  0  0  0  0
  128.6415  137.5062  133.0677 C   0  0  0  0  0  0  0  0  0  0  0  0
  129.1178  136.3390  133.2354 O   0  0  0  0  0  0  0  0  0  0  0  0
  127.3932  137.8814  133.6190 N   0  0  0  0  0  0  0  0  0  0  0  0
  126.1926  137.5730  132.9175 C   0  0  2  0  0  0  0  0  0  0  0  0
  125.0909  138.5587  133.2565 C   0  0  0  0  0  0  0  0  0  0  0  0
  123.7990  137.8961  133.6097 C   0  0  0  0  0  0  0  0  0  0  0  0
  123.4811  136.7088  132.7496 C   0  0  2  0  0  0  0  0  0  0  0  0
  124.5768  135.9691  132.3767 O   0  0  0  0  0  0  0  0  0  0  0  0
  125.6508  136.1970  133.2359 C   0  0  0  0  0  0  0  0  0  0  0  0
  122.6498  137.1082  131.5586 C   0  0  0  0  0  0  0  0  0  0  0  0
  122.4511  136.2004  130.4916 N   0  0  0  0  0  0  0  0  0  0  0  0
  122.1586  138.2640  131.5720 O   0  0  0  0  0  0  0  0  0  0  0  0
  1  2  1  0
  2  3  1  0
  2  4  1  0
  4  5  1  0
  5  6  1  0
  6  7  1  0
  7  8  1  0
  6  9  1  0
  9 10  1  0
 10 11  1  0
 11 12  1  6
 12 13  2  0
 13 14  1  0
 13 15  1  0
 15 16  1  0
 15 17  2  0
 17 18  1  0
 18 19  2  0
 11 20  1  0
 20 21  1  0
 21 22  2  0
 21 23  1  0
 23 24  1  0
 24 25  2  0
 25 26  1  0
 26 27  1  0
 26 28  2  0
 28 29  1  0
 29 30  2  0
 10 31  1  1
 31 32  2  0
 31 33  1  0
 34 33  1  1
 34 35  1  0
 35 36  1  0
 36 37  1  0
 37 38  1  0
 38 39  1  0
 37 40  1  6
 40 41  1  0
 40 42  2  0
  8  2  1  0
 19 12  1  0
 30 20  1  0
 39 34  1  0
 20  6  1  6
 30 24  1  0
M  END
$$$$
