
     RDKit          3D

 42 47  0  0  0  0  0  0  0  0999 V2000
  130.3897  159.5133  155.6809 C   0  0  0  0  0  0  0  0  0  0  0  0
  130.9668  159.9307  154.3201 C   0  0  0  0  0  0  0  0  0  0  0  0
  130.7983  158.7966  153.3518 C   0  0  0  0  0  0  0  0  0  0  0  0
  132.3731  160.3438  154.5544 C   0  0  0  0  0  0  0  0  0  0  0  0
  132.8404  161.4662  153.6096 C   0  0  0  0  0  0  0  0  0  0  0  0
  132.1136  162.7644  153.8677 C   0  0  0  0  0  0  0  0  0  0  0  0
  130.8661  162.3418  154.6085 C   0  0  0  0  0  0  0  0  0  0  0  0
  130.1935  161.1541  153.9023 C   0  0  0  0  0  0  0  0  0  0  0  0
  132.9211  163.5081  154.7787 N   0  0  0  0  0  0  0  0  0  0  0  0
  133.5059  164.6499  154.2015 C   0  0  2  0  0  0  0  0  0  0  0  0
  132.6566  164.8879  153.0131 C   0  0  2  0  0  0  0  0  0  0  0  0
  131.8409  166.0972  153.2395 C   0  0  0  0  0  0  0  0  0  0  0  0
  132.3857  167.3149  153.6323 C   0  0  0  0  0  0  0  0  0  0  0  0
  133.7263  167.4578  153.7810 F   0  0  0  0  0  0  0  0  0  0  0  0
  131.6149  168.4343  153.8661 C   0  0  0  0  0  0  0  0  0  0  0  0
  132.3833  169.9468  154.3642 Cl  0  0  0  0  0  0  0  0  0  0  0  0
  130.2759  168.3594  153.7106 N   0  0  0  0  0  0  0  0  0  0  0  0
  129.6899  167.2074  153.3310 C   0  0  0  0  0  0  0  0  0  0  0  0
  130.4465  166.0855  153.0954 C   0  0  0  0  0  0  0  0  0  0  0  0
  131.8879  163.6181  152.6901 C   0  0  2  0  0  0  0  0  0  0  0  0
  130.5516  163.9742  152.3493 C   0  0  0  0  0  0  0  0  0  0  0  0
  129.5948  164.5364  153.0067 O   0  0  0  0  0  0  0  0  0  0  0  0
  130.2869  163.6124  151.0159 N   0  0  0  0  0  0  0  0  0  0  0  0
  131.5066  163.0953  150.4960 C   0  0  0  0  0  0  0  0  0  0  0  0
  131.8055  162.6266  149.1948 C   0  0  0  0  0  0  0  0  0  0  0  0
  133.0782  162.2044  148.8922 C   0  0  0  0  0  0  0  0  0  0  0  0
  133.4384  161.6247  147.2742 Cl  0  0  0  0  0  0  0  0  0  0  0  0
  134.0491  162.2462  149.8718 C   0  0  0  0  0  0  0  0  0  0  0  0
  133.8050  162.6909  151.1431 C   0  0  0  0  0  0  0  0  0  0  0  0
  132.4870  163.1184  151.4279 C   0  0  0  0  0  0  0  0  0  0  0  0
  134.9604  164.6506  154.0122 C   0  0  0  0  0  0  0  0  0  0  0  0
  135.3792  164.6005  152.8124 O   0  0  0  0  0  0  0  0  0  0  0  0
  135.8565  164.7037  155.1063 N   0  0  0  0  0  0  0  0  0  0  0  0
  135.6322  163.8725  156.2410 C   0  0  2  0  0  0  0  0  0  0  0  0
  135.6872  164.6742  157.5273 C   0  0  0  0  0  0  0  0  0  0  0  0
  136.5560  164.0503  158.5707 C   0  0  0  0  0  0  0  0  0  0  0  0
  136.4265  162.5575  158.6424 C   0  0  2  0  0  0  0  0  0  0  0  0
  136.2295  161.9465  157.4281 O   0  0  0  0  0  0  0  0  0  0  0  0
  136.6524  162.7645  156.3814 C   0  0  0  0  0  0  0  0  0  0  0  0
  135.3782  162.1510  159.6447 C   0  0  0  0  0  0  0  0  0  0  0  0
  134.9116  163.0801  160.6045 N   0  0  0  0  0  0  0  0  0  0  0  0
  134.9567  160.9698  159.5768 O   0  0  0  0  0  0  0  0  0  0  0  0
  1  2  1  0
  2  3  1  0
  2  4  1  0
  4  5  1  0
  5  6  1  0
  6  7  1  0
  7  8  1  0
  6  9  1  0
  9 10  1  0
 10 11  1  0
 11 12  1  1
 12 13  2  0
 13 14  1  0
 13 15  1  0
 15 16  1  0
 15 17  2  0
 17 18  1  0
 18 19  2  0
 11 20  1  0
 20 21  1  0
 21 22  2  0
 21 23  1  0
 23 24  1  0
 24 25  2  0
 25 26  1  0
 26 27  1  0
 26 28  2  0
 28 29  1  0
 29 30  2  0
 10 31  1  6
 31 32  2  0
 31 33  1  0
 34 33  1  6
 34 35  1  0
 35 36  1  0
 36 37  1  0
 37 38  1  0
 38 39  1  0
 37 40  1  1
 40 41  1  0
 40 42  2  0
  8  2  1  0
 19 12  1  0
 30 20  1  0
 39 34  1  0
 20  6  1  1
 30 24  1  0
M  END
$$$$
