
     RDKit          3D

 42 47  0  0  0  0  0  0  0  0999 V2000
  134.3059  138.3103  136.7367 C   0  0  0  0  0  0  0  0  0  0  0  0
  132.9777  137.8358  136.1286 C   0  0  0  0  0  0  0  0  0  0  0  0
  132.5459  136.5782  136.8245 C   0  0  0  0  0  0  0  0  0  0  0  0
  133.1967  137.6933  134.6674 C   0  0  0  0  0  0  0  0  0  0  0  0
  131.9420  138.0096  133.8329 C   0  0  0  0  0  0  0  0  0  0  0  0
  131.5525  139.4657  133.9236 C   0  0  0  0  0  0  0  0  0  0  0  0
  132.2384  139.9481  135.1807 C   0  0  0  0  0  0  0  0  0  0  0  0
  132.0022  138.9644  136.3377 C   0  0  0  0  0  0  0  0  0  0  0  0
  132.1725  140.1218  132.8190 N   0  0  0  0  0  0  0  0  0  0  0  0
  131.2568  140.5614  131.8459 C   0  0  2  0  0  0  0  0  0  0  0  0
  129.9789  140.5985  132.5914 C   0  0  2  0  0  0  0  0  0  0  0  0
  129.5860  142.0058  132.8021 C   0  0  0  0  0  0  0  0  0  0  0  0
  129.1207  142.8231  131.7778 C   0  0  0  0  0  0  0  0  0  0  0  0
  128.9595  142.3358  130.5223 F   0  0  0  0  0  0  0  0  0  0  0  0
  128.7788  144.1442  131.9768 C   0  0  0  0  0  0  0  0  0  0  0  0
  128.1954  145.1188  130.6218 Cl  0  0  0  0  0  0  0  0  0  0  0  0
  128.8951  144.6785  133.2112 N   0  0  0  0  0  0  0  0  0  0  0  0
  129.3393  143.9365  134.2439 C   0  0  0  0  0  0  0  0  0  0  0  0
  129.6833  142.6197  134.0586 C   0  0  0  0  0  0  0  0  0  0  0  0
  130.1104  139.7499  133.8444 C   0  0  2  0  0  0  0  0  0  0  0  0
  129.4890  140.4405  134.9240 C   0  0  0  0  0  0  0  0  0  0  0  0
  129.7328  141.5647  135.5075 O   0  0  0  0  0  0  0  0  0  0  0  0
  128.3991  139.6922  135.4044 N   0  0  0  0  0  0  0  0  0  0  0  0
  128.2940  138.5550  134.5553 C   0  0  0  0  0  0  0  0  0  0  0  0
  127.3475  137.5032  134.5694 C   0  0  0  0  0  0  0  0  0  0  0  0
  127.4067  136.5131  133.6177 C   0  0  0  0  0  0  0  0  0  0  0  0
  126.2271  135.2125  133.6443 Cl  0  0  0  0  0  0  0  0  0  0  0  0
  128.3967  136.5640  132.6578 C   0  0  0  0  0  0  0  0  0  0  0  0
  129.3327  137.5612  132.6063 C   0  0  0  0  0  0  0  0  0  0  0  0
  129.2497  138.5668  133.5978 C   0  0  0  0  0  0  0  0  0  0  0  0
  131.2680  139.8866  130.5436 C   0  0  0  0  0  0  0  0  0  0  0  0
  130.1487  139.7735  129.9505 O   0  0  0  0  0  0  0  0  0  0  0  0
  132.4614  139.3846  129.9720 N   0  0  0  0  0  0  0  0  0  0  0  0
  132.7551  139.6547  128.6048 C   0  0  2  0  0  0  0  0  0  0  0  0
  133.8387  140.7077  128.4744 C   0  0  0  0  0  0  0  0  0  0  0  0
  133.4876  141.7949  127.5112 C   0  0  0  0  0  0  0  0  0  0  0  0
  132.7951  141.2991  126.2763 C   0  0  2  0  0  0  0  0  0  0  0  0
  131.9457  140.2406  126.4888 O   0  0  0  0  0  0  0  0  0  0  0  0
  131.5628  140.1667  127.8272 C   0  0  0  0  0  0  0  0  0  0  0  0
  133.7850  141.0047  125.1798 C   0  0  0  0  0  0  0  0  0  0  0  0
  134.0315  141.9610  124.1665 N   0  0  0  0  0  0  0  0  0  0  0  0
  134.3610  139.8893  125.2205 O   0  0  0  0  0  0  0  0  0  0  0  0
  1  2  1  0
  2  3  1  0
  2  4  1  0
  4  5  1  0
  5  6  1  0
  6  7  1  0
  7  8  1  0
  6  9  1  0
  9 10  1  0
 10 11  1  0
 11 12  1  1
 12 13  2  0
 13 14  1  0
 13 15  1  0
 15 16  1  0
 15 17  2  0
 17 18  1  0
 18 19  2  0
 11 20  1  0
 20 21  1  0
 21 22  2  0
 21 23  1  0
 23 24  1  0
 24 25  2  0
 25 26  1  0
 26 27  1  0
 26 28  2  0
 28 29  1  0
 29 30  2  0
 10 31  1  6
 31 32  2  0
 31 33  1  0
 34 33  1  1
 34 35  1  0
 35 36  1  0
 36 37  1  0
 37 38  1  0
 38 39  1  0
 37 40  1  6
 40 41  1  0
 40 42  2  0
  8  2  1  0
 19 12  1  0
 30 20  1  0
 39 34  1  0
 20  6  1  1
 30 24  1  0
M  END
$$$$
