
     RDKit          3D

 42 47  0  0  0  0  0  0  0  0999 V2000
  134.5571  138.0456  135.1631 C   0  0  0  0  0  0  0  0  0  0  0  0
  133.1791  137.6653  134.6013 C   0  0  0  0  0  0  0  0  0  0  0  0
  132.8181  136.2919  135.0870 C   0  0  0  0  0  0  0  0  0  0  0  0
  133.2607  137.8008  133.1254 C   0  0  0  0  0  0  0  0  0  0  0  0
  131.9324  138.2407  132.4829 C   0  0  0  0  0  0  0  0  0  0  0  0
  131.5489  139.6465  132.8789 C   0  0  0  0  0  0  0  0  0  0  0  0
  132.3482  139.9013  134.1358 C   0  0  0  0  0  0  0  0  0  0  0  0
  132.2243  138.7155  135.1057 C   0  0  0  0  0  0  0  0  0  0  0  0
  132.0608  140.5086  131.8641 N   0  0  0  0  0  0  0  0  0  0  0  0
  131.0567  141.1023  131.0780 C   0  0  2  0  0  0  0  0  0  0  0  0
  129.8541  140.9745  131.9311 C   0  0  2  0  0  0  0  0  0  0  0  0
  129.4786  142.3101  132.4357 C   0  0  0  0  0  0  0  0  0  0  0  0
  128.4762  143.0825  131.8593 C   0  0  0  0  0  0  0  0  0  0  0  0
  127.7523  142.6097  130.8142 F   0  0  0  0  0  0  0  0  0  0  0  0
  128.1475  144.3399  132.3205 C   0  0  0  0  0  0  0  0  0  0  0  0
  126.8600  145.2605  131.5324 Cl  0  0  0  0  0  0  0  0  0  0  0  0
  128.8173  144.8537  133.3741 N   0  0  0  0  0  0  0  0  0  0  0  0
  129.7982  144.1529  133.9750 C   0  0  0  0  0  0  0  0  0  0  0  0
  130.1353  142.8997  133.5249 C   0  0  0  0  0  0  0  0  0  0  0  0
  130.1050  139.9112  132.9864 C   0  0  2  0  0  0  0  0  0  0  0  0
  129.5854  140.3768  134.2282 C   0  0  0  0  0  0  0  0  0  0  0  0
  129.8795  141.3780  134.9863 O   0  0  0  0  0  0  0  0  0  0  0  0
  128.5475  139.5303  134.6583 N   0  0  0  0  0  0  0  0  0  0  0  0
  128.3666  138.5685  133.6251 C   0  0  0  0  0  0  0  0  0  0  0  0
  127.4287  137.5134  133.5293 C   0  0  0  0  0  0  0  0  0  0  0  0
  127.4013  136.7183  132.4083 C   0  0  0  0  0  0  0  0  0  0  0  0
  126.2332  135.4116  132.2997 Cl  0  0  0  0  0  0  0  0  0  0  0  0
  128.2968  136.9664  131.3883 C   0  0  0  0  0  0  0  0  0  0  0  0
  129.2210  137.9747  131.4382 C   0  0  0  0  0  0  0  0  0  0  0  0
  129.2283  138.7770  132.6033 C   0  0  0  0  0  0  0  0  0  0  0  0
  130.9478  140.6812  129.6772 C   0  0  0  0  0  0  0  0  0  0  0  0
  131.1425  139.4477  129.4360 O   0  0  0  0  0  0  0  0  0  0  0  0
  130.6422  141.5974  128.6428 N   0  0  0  0  0  0  0  0  0  0  0  0
  131.5769  141.8062  127.5886 C   0  0  2  0  0  0  0  0  0  0  0  0
  132.9373  141.2357  127.9410 C   0  0  0  0  0  0  0  0  0  0  0  0
  134.0572  142.1936  127.6935 C   0  0  0  0  0  0  0  0  0  0  0  0
  133.8993  142.9844  126.4285 C   0  0  2  0  0  0  0  0  0  0  0  0
  132.6017  143.3202  126.1279 O   0  0  0  0  0  0  0  0  0  0  0  0
  131.7949  143.2675  127.2636 C   0  0  0  0  0  0  0  0  0  0  0  0
  134.5772  142.2986  125.2714 C   0  0  0  0  0  0  0  0  0  0  0  0
  135.9721  142.4373  125.0786 N   0  0  0  0  0  0  0  0  0  0  0  0
  133.8475  141.6156  124.5107 O   0  0  0  0  0  0  0  0  0  0  0  0
  1  2  1  0
  2  3  1  0
  2  4  1  0
  4  5  1  0
  5  6  1  0
  6  7  1  0
  7  8  1  0
  6  9  1  0
  9 10  1  0
 10 11  1  0
 11 12  1  1
 12 13  2  0
 13 14  1  0
 13 15  1  0
 15 16  1  0
 15 17  2  0
 17 18  1  0
 18 19  2  0
 11 20  1  0
 20 21  1  0
 21 22  2  0
 21 23  1  0
 23 24  1  0
 24 25  2  0
 25 26  1  0
 26 27  1  0
 26 28  2  0
 28 29  1  0
 29 30  2  0
 10 31  1  6
 31 32  2  0
 31 33  1  0
 34 33  1  1
 34 35  1  0
 35 36  1  0
 36 37  1  0
 37 38  1  0
 38 39  1  0
 37 40  1  6
 40 41  1  0
 40 42  2  0
  8  2  1  0
 19 12  1  0
 30 20  1  0
 39 34  1  0
 20  6  1  1
 30 24  1  0
M  END
$$$$
