
     RDKit          3D

 42 47  0  0  0  0  0  0  0  0999 V2000
  203.2486  129.4142  132.8136 C   0  0  0  0  0  0  0  0  0  0  0  0
  203.4918  130.8606  132.3579 C   0  0  0  0  0  0  0  0  0  0  0  0
  202.7072  131.1139  131.1040 C   0  0  0  0  0  0  0  0  0  0  0  0
  204.9599  131.0293  132.2168 C   0  0  0  0  0  0  0  0  0  0  0  0
  205.4412  132.4530  132.5515 C   0  0  0  0  0  0  0  0  0  0  0  0
  205.2536  132.7866  134.0121 C   0  0  0  0  0  0  0  0  0  0  0  0
  204.2171  131.7923  134.4822 C   0  0  0  0  0  0  0  0  0  0  0  0
  203.0379  131.7338  133.4983 C   0  0  0  0  0  0  0  0  0  0  0  0
  206.4813  132.4652  134.6635 N   0  0  0  0  0  0  0  0  0  0  0  0
  207.1845  133.5958  135.1174 C   0  0  2  0  0  0  0  0  0  0  0  0
  206.1335  134.6366  135.1688 C   0  0  2  0  0  0  0  0  0  0  0  0
  205.8291  134.9430  136.5803 C   0  0  0  0  0  0  0  0  0  0  0  0
  206.3210  136.0677  137.2337 C   0  0  0  0  0  0  0  0  0  0  0  0
  207.0801  136.9762  136.5719 F   0  0  0  0  0  0  0  0  0  0  0  0
  206.0528  136.3349  138.5598 C   0  0  0  0  0  0  0  0  0  0  0  0
  206.7166  137.7869  139.3195 Cl  0  0  0  0  0  0  0  0  0  0  0  0
  205.2822  135.4788  139.2640 N   0  0  0  0  0  0  0  0  0  0  0  0
  204.7760  134.3725  138.6859 C   0  0  0  0  0  0  0  0  0  0  0  0
  205.0361  134.0950  137.3660 C   0  0  0  0  0  0  0  0  0  0  0  0
  204.9568  134.1962  134.3151 C   0  0  2  0  0  0  0  0  0  0  0  0
  203.7535  134.5078  135.0105 C   0  0  0  0  0  0  0  0  0  0  0  0
  203.2537  134.1066  136.1298 O   0  0  0  0  0  0  0  0  0  0  0  0
  203.0068  135.4459  134.2747 N   0  0  0  0  0  0  0  0  0  0  0  0
  203.7992  135.7821  133.1415 C   0  0  0  0  0  0  0  0  0  0  0  0
  203.5399  136.7063  132.1018 C   0  0  0  0  0  0  0  0  0  0  0  0
  204.4738  136.9085  131.1137 C   0  0  0  0  0  0  0  0  0  0  0  0
  204.1420  138.0579  129.8282 Cl  0  0  0  0  0  0  0  0  0  0  0  0
  205.6574  136.2003  131.1547 C   0  0  0  0  0  0  0  0  0  0  0  0
  205.9501  135.2965  132.1400 C   0  0  0  0  0  0  0  0  0  0  0  0
  204.9714  135.1069  133.1437 C   0  0  0  0  0  0  0  0  0  0  0  0
  208.4449  133.9310  134.4463 C   0  0  0  0  0  0  0  0  0  0  0  0
  208.3952  134.8453  133.5637 O   0  0  0  0  0  0  0  0  0  0  0  0
  209.6575  133.2727  134.7612 N   0  0  0  0  0  0  0  0  0  0  0  0
  210.8362  133.5770  134.0218 C   0  0  2  0  0  0  0  0  0  0  0  0
  211.1170  132.5150  132.9761 C   0  0  0  0  0  0  0  0  0  0  0  0
  212.5314  132.0334  132.9939 C   0  0  0  0  0  0  0  0  0  0  0  0
  213.5331  133.1283  133.2139 C   0  0  2  0  0  0  0  0  0  0  0  0
  213.1122  134.1188  134.0675 O   0  0  0  0  0  0  0  0  0  0  0  0
  212.0757  133.6690  134.8841 C   0  0  0  0  0  0  0  0  0  0  0  0
  214.0166  133.6931  131.9040 C   0  0  0  0  0  0  0  0  0  0  0  0
  213.8256  135.0628  131.6046 N   0  0  0  0  0  0  0  0  0  0  0  0
  214.5835  132.8949  131.1171 O   0  0  0  0  0  0  0  0  0  0  0  0
  1  2  1  0
  2  3  1  0
  2  4  1  0
  4  5  1  0
  5  6  1  0
  6  7  1  0
  7  8  1  0
  6  9  1  0
  9 10  1  0
 10 11  1  0
 11 12  1  1
 12 13  2  0
 13 14  1  0
 13 15  1  0
 15 16  1  0
 15 17  2  0
 17 18  1  0
 18 19  2  0
 11 20  1  0
 20 21  1  0
 21 22  2  0
 21 23  1  0
 23 24  1  0
 24 25  2  0
 25 26  1  0
 26 27  1  0
 26 28  2  0
 28 29  1  0
 29 30  2  0
 10 31  1  6
 31 32  2  0
 31 33  1  0
 34 33  1  1
 34 35  1  0
 35 36  1  0
 36 37  1  0
 37 38  1  0
 38 39  1  0
 37 40  1  6
 40 41  1  0
 40 42  2  0
  8  2  1  0
 19 12  1  0
 30 20  1  0
 39 34  1  0
 20  6  1  6
 30 24  1  0
M  END
$$$$
