
     RDKit          3D

 42 47  0  0  0  0  0  0  0  0999 V2000
  127.6029  141.3358  138.3075 C   0  0  0  0  0  0  0  0  0  0  0  0
  128.5074  141.2770  137.0675 C   0  0  0  0  0  0  0  0  0  0  0  0
  129.2798  139.9905  137.0895 C   0  0  0  0  0  0  0  0  0  0  0  0
  129.3432  142.5037  137.0826 C   0  0  0  0  0  0  0  0  0  0  0  0
  129.6827  143.0230  135.6734 C   0  0  0  0  0  0  0  0  0  0  0  0
  128.4587  143.5192  134.9415 C   0  0  0  0  0  0  0  0  0  0  0  0
  127.3085  142.8628  135.6694 C   0  0  0  0  0  0  0  0  0  0  0  0
  127.5850  141.3658  135.8800 C   0  0  0  0  0  0  0  0  0  0  0  0
  128.3776  144.9217  135.1894 N   0  0  0  0  0  0  0  0  0  0  0  0
  128.6346  145.7053  134.0499 C   0  0  2  0  0  0  0  0  0  0  0  0
  128.4066  144.7536  132.9395 C   0  0  2  0  0  0  0  0  0  0  0  0
  127.1632  145.1249  132.2359 C   0  0  0  0  0  0  0  0  0  0  0  0
  127.1331  145.4918  130.8949 C   0  0  0  0  0  0  0  0  0  0  0  0
  128.2650  145.4776  130.1477 F   0  0  0  0  0  0  0  0  0  0  0  0
  125.9713  145.8615  130.2503 C   0  0  0  0  0  0  0  0  0  0  0  0
  126.0159  146.3160  128.5422 Cl  0  0  0  0  0  0  0  0  0  0  0  0
  124.8088  145.8713  130.9366 N   0  0  0  0  0  0  0  0  0  0  0  0
  124.7741  145.5250  132.2379 C   0  0  0  0  0  0  0  0  0  0  0  0
  125.9243  145.1553  132.8913 C   0  0  0  0  0  0  0  0  0  0  0  0
  128.4664  143.3357  133.4811 C   0  0  2  0  0  0  0  0  0  0  0  0
  127.4193  142.5793  132.8811 C   0  0  0  0  0  0  0  0  0  0  0  0
  126.1333  142.6729  132.9160 O   0  0  0  0  0  0  0  0  0  0  0  0
  127.9652  141.5367  132.1104 N   0  0  0  0  0  0  0  0  0  0  0  0
  129.3779  141.6983  132.1691 C   0  0  0  0  0  0  0  0  0  0  0  0
  130.3985  140.9470  131.5399 C   0  0  0  0  0  0  0  0  0  0  0  0
  131.7153  141.3070  131.7011 C   0  0  0  0  0  0  0  0  0  0  0  0
  132.9741  140.3677  130.9157 Cl  0  0  0  0  0  0  0  0  0  0  0  0
  132.0198  142.4043  132.4804 C   0  0  0  0  0  0  0  0  0  0  0  0
  131.0660  143.1592  133.1079 C   0  0  0  0  0  0  0  0  0  0  0  0
  129.7192  142.7663  132.9262 C   0  0  0  0  0  0  0  0  0  0  0  0
  129.8702  146.4953  134.0288 C   0  0  0  0  0  0  0  0  0  0  0  0
  130.9625  145.8446  133.9972 O   0  0  0  0  0  0  0  0  0  0  0  0
  129.8530  147.9104  134.0434 N   0  0  0  0  0  0  0  0  0  0  0  0
  129.1935  148.5954  135.1038 C   0  0  2  0  0  0  0  0  0  0  0  0
  127.7451  148.1611  135.2199 C   0  0  0  0  0  0  0  0  0  0  0  0
  126.7932  149.3097  135.3076 C   0  0  0  0  0  0  0  0  0  0  0  0
  127.2919  150.4354  136.1647 C   0  0  2  0  0  0  0  0  0  0  0  0
  128.6478  150.6440  136.0945 O   0  0  0  0  0  0  0  0  0  0  0  0
  129.1786  150.0977  134.9268 C   0  0  0  0  0  0  0  0  0  0  0  0
  126.8273  150.2801  137.5891 C   0  0  0  0  0  0  0  0  0  0  0  0
  125.9678  151.2438  138.1675 N   0  0  0  0  0  0  0  0  0  0  0  0
  127.2391  149.2707  138.2128 O   0  0  0  0  0  0  0  0  0  0  0  0
  1  2  1  0
  2  3  1  0
  2  4  1  0
  4  5  1  0
  5  6  1  0
  6  7  1  0
  7  8  1  0
  6  9  1  0
  9 10  1  0
 10 11  1  0
 11 12  1  1
 12 13  2  0
 13 14  1  0
 13 15  1  0
 15 16  1  0
 15 17  2  0
 17 18  1  0
 18 19  2  0
 11 20  1  0
 20 21  1  0
 21 22  2  0
 21 23  1  0
 23 24  1  0
 24 25  2  0
 25 26  1  0
 26 27  1  0
 26 28  2  0
 28 29  1  0
 29 30  2  0
 10 31  1  1
 31 32  2  0
 31 33  1  0
 34 33  1  6
 34 35  1  0
 35 36  1  0
 36 37  1  0
 37 38  1  0
 38 39  1  0
 37 40  1  1
 40 41  1  0
 40 42  2  0
  8  2  1  0
 19 12  1  0
 30 20  1  0
 39 34  1  0
 20  6  1  1
 30 24  1  0
M  END
$$$$
