
     RDKit          3D

 42 47  0  0  0  0  0  0  0  0999 V2000
  135.8547  137.7376  130.7812 C   0  0  0  0  0  0  0  0  0  0  0  0
  135.1109  138.0021  132.0988 C   0  0  0  0  0  0  0  0  0  0  0  0
  136.0870  137.9108  133.2350 C   0  0  0  0  0  0  0  0  0  0  0  0
  133.9885  137.0331  132.1646 C   0  0  0  0  0  0  0  0  0  0  0  0
  132.7493  137.5895  132.8895 C   0  0  0  0  0  0  0  0  0  0  0  0
  132.1058  138.7218  132.1253 C   0  0  0  0  0  0  0  0  0  0  0  0
  133.1991  139.2040  131.2003 C   0  0  0  0  0  0  0  0  0  0  0  0
  134.5186  139.3810  131.9680 C   0  0  0  0  0  0  0  0  0  0  0  0
  131.0866  138.1382  131.3156 N   0  0  0  0  0  0  0  0  0  0  0  0
  129.7849  138.4780  131.7266 C   0  0  2  0  0  0  0  0  0  0  0  0
  130.0047  139.6968  132.5369 C   0  0  2  0  0  0  0  0  0  0  0  0
  129.4829  140.8646  131.7999 C   0  0  0  0  0  0  0  0  0  0  0  0
  128.7598  141.8835  132.4105 C   0  0  0  0  0  0  0  0  0  0  0  0
  128.5397  141.8702  133.7487 F   0  0  0  0  0  0  0  0  0  0  0  0
  128.2539  142.9592  131.7113 C   0  0  0  0  0  0  0  0  0  0  0  0
  127.3434  144.2145  132.5606 Cl  0  0  0  0  0  0  0  0  0  0  0  0
  128.4622  143.0395  130.3799 N   0  0  0  0  0  0  0  0  0  0  0  0
  129.1560  142.0835  129.7323 C   0  0  0  0  0  0  0  0  0  0  0  0
  129.6646  141.0070  130.4171 C   0  0  0  0  0  0  0  0  0  0  0  0
  131.4668  139.7657  132.9430 C   0  0  2  0  0  0  0  0  0  0  0  0
  131.9108  141.1118  132.8029 C   0  0  0  0  0  0  0  0  0  0  0  0
  132.0248  141.9008  131.7889 O   0  0  0  0  0  0  0  0  0  0  0  0
  132.2859  141.6234  134.0584 N   0  0  0  0  0  0  0  0  0  0  0  0
  131.9937  140.6024  135.0058 C   0  0  0  0  0  0  0  0  0  0  0  0
  132.1397  140.6094  136.4132 C   0  0  0  0  0  0  0  0  0  0  0  0
  131.7512  139.5156  137.1496 C   0  0  0  0  0  0  0  0  0  0  0  0
  131.9367  139.5349  138.8957 Cl  0  0  0  0  0  0  0  0  0  0  0  0
  131.2210  138.4217  136.4967 C   0  0  0  0  0  0  0  0  0  0  0  0
  131.0620  138.3709  135.1382 C   0  0  0  0  0  0  0  0  0  0  0  0
  131.4709  139.5091  134.4044 C   0  0  0  0  0  0  0  0  0  0  0  0
  128.9516  137.4169  132.3020 C   0  0  0  0  0  0  0  0  0  0  0  0
  129.5181  136.2977  132.5118 O   0  0  0  0  0  0  0  0  0  0  0  0
  127.5856  137.6231  132.6096 N   0  0  0  0  0  0  0  0  0  0  0  0
  126.5832  136.9845  131.8248 C   0  0  2  0  0  0  0  0  0  0  0  0
  126.8374  135.4930  131.7188 C   0  0  0  0  0  0  0  0  0  0  0  0
  126.7564  134.9823  130.3168 C   0  0  0  0  0  0  0  0  0  0  0  0
  125.6418  135.5942  129.5208 C   0  0  2  0  0  0  0  0  0  0  0  0
  125.3995  136.9156  129.8074 O   0  0  0  0  0  0  0  0  0  0  0  0
  126.5087  137.5093  130.4080 C   0  0  0  0  0  0  0  0  0  0  0  0
  124.3872  134.7663  129.6178 C   0  0  0  0  0  0  0  0  0  0  0  0
  123.6896  134.3896  128.4458 N   0  0  0  0  0  0  0  0  0  0  0  0
  124.0104  134.4409  130.7709 O   0  0  0  0  0  0  0  0  0  0  0  0
  1  2  1  0
  2  3  1  0
  2  4  1  0
  4  5  1  0
  5  6  1  0
  6  7  1  0
  7  8  1  0
  6  9  1  0
  9 10  1  0
 10 11  1  0
 11 12  1  6
 12 13  2  0
 13 14  1  0
 13 15  1  0
 15 16  1  0
 15 17  2  0
 17 18  1  0
 18 19  2  0
 11 20  1  0
 20 21  1  0
 21 22  2  0
 21 23  1  0
 23 24  1  0
 24 25  2  0
 25 26  1  0
 26 27  1  0
 26 28  2  0
 28 29  1  0
 29 30  2  0
 10 31  1  1
 31 32  2  0
 31 33  1  0
 34 33  1  1
 34 35  1  0
 35 36  1  0
 36 37  1  0
 37 38  1  0
 38 39  1  0
 37 40  1  1
 40 41  1  0
 40 42  2  0
  8  2  1  0
 19 12  1  0
 30 20  1  0
 39 34  1  0
 20  6  1  6
 30 24  1  0
M  END
$$$$
