
     RDKit          3D

 42 47  0  0  0  0  0  0  0  0999 V2000
  170.7183  159.6342  112.5097 C   0  0  0  0  0  0  0  0  0  0  0  0
  171.7674  160.6023  113.0765 C   0  0  0  0  0  0  0  0  0  0  0  0
  172.1420  160.1581  114.4601 C   0  0  0  0  0  0  0  0  0  0  0  0
  171.1858  161.9657  112.9978 C   0  0  0  0  0  0  0  0  0  0  0  0
  172.2394  163.0605  112.7485 C   0  0  0  0  0  0  0  0  0  0  0  0
  172.8712  162.9393  111.3824 C   0  0  0  0  0  0  0  0  0  0  0  0
  172.5931  161.5099  110.9785 C   0  0  0  0  0  0  0  0  0  0  0  0
  172.9351  160.5469  112.1264 C   0  0  0  0  0  0  0  0  0  0  0  0
  172.1209  163.7838  110.5112 N   0  0  0  0  0  0  0  0  0  0  0  0
  172.8369  164.9142  110.0772 C   0  0  2  0  0  0  0  0  0  0  0  0
  174.2443  164.5198  110.3096 C   0  0  2  0  0  0  0  0  0  0  0  0
  174.9000  164.2884  109.0074 C   0  0  0  0  0  0  0  0  0  0  0  0
  175.9381  165.0818  108.5312 C   0  0  0  0  0  0  0  0  0  0  0  0
  176.4350  166.0960  109.2823 F   0  0  0  0  0  0  0  0  0  0  0  0
  176.5295  164.8751  107.3026 C   0  0  0  0  0  0  0  0  0  0  0  0
  177.8447  165.9288  106.7677 Cl  0  0  0  0  0  0  0  0  0  0  0  0
  176.0934  163.8648  106.5205 N   0  0  0  0  0  0  0  0  0  0  0  0
  175.0916  163.0616  106.9275 C   0  0  0  0  0  0  0  0  0  0  0  0
  174.4941  163.2573  108.1487 C   0  0  0  0  0  0  0  0  0  0  0  0
  174.2791  163.3579  111.2875 C   0  0  2  0  0  0  0  0  0  0  0  0
  175.2442  162.4144  110.8326 C   0  0  0  0  0  0  0  0  0  0  0  0
  175.3333  161.6875  109.7708 O   0  0  0  0  0  0  0  0  0  0  0  0
  176.2804  162.2990  111.7770 N   0  0  0  0  0  0  0  0  0  0  0  0
  175.9931  163.2474  112.7984 C   0  0  0  0  0  0  0  0  0  0  0  0
  176.7311  163.5720  113.9612 C   0  0  0  0  0  0  0  0  0  0  0  0
  176.2861  164.5635  114.8028 C   0  0  0  0  0  0  0  0  0  0  0  0
  177.2098  164.9585  116.2431 Cl  0  0  0  0  0  0  0  0  0  0  0  0
  175.1176  165.2298  114.4951 C   0  0  0  0  0  0  0  0  0  0  0  0
  174.3716  164.9488  113.3824 C   0  0  0  0  0  0  0  0  0  0  0  0
  174.8516  163.9236  112.5341 C   0  0  0  0  0  0  0  0  0  0  0  0
  172.4055  166.2265  110.5701 C   0  0  0  0  0  0  0  0  0  0  0  0
  173.1870  167.2046  110.3464 O   0  0  0  0  0  0  0  0  0  0  0  0
  171.1825  166.4005  111.2607 N   0  0  0  0  0  0  0  0  0  0  0  0
  170.0535  166.9280  110.5710 C   0  0  2  0  0  0  0  0  0  0  0  0
  169.8156  168.3800  110.9384 C   0  0  0  0  0  0  0  0  0  0  0  0
  168.3947  168.6688  111.2995 C   0  0  0  0  0  0  0  0  0  0  0  0
  167.4003  167.9612  110.4271 C   0  0  2  0  0  0  0  0  0  0  0  0
  167.7879  166.7049  110.0293 O   0  0  0  0  0  0  0  0  0  0  0  0
  168.7682  166.1913  110.8772 C   0  0  0  0  0  0  0  0  0  0  0  0
  167.0025  168.8169  109.2531 C   0  0  0  0  0  0  0  0  0  0  0  0
  167.4583  170.1530  109.1580 N   0  0  0  0  0  0  0  0  0  0  0  0
  166.2621  168.2851  108.3890 O   0  0  0  0  0  0  0  0  0  0  0  0
  1  2  1  0
  2  3  1  0
  2  4  1  0
  4  5  1  0
  5  6  1  0
  6  7  1  0
  7  8  1  0
  6  9  1  0
  9 10  1  0
 10 11  1  0
 11 12  1  6
 12 13  2  0
 13 14  1  0
 13 15  1  0
 15 16  1  0
 15 17  2  0
 17 18  1  0
 18 19  2  0
 11 20  1  0
 20 21  1  0
 21 22  2  0
 21 23  1  0
 23 24  1  0
 24 25  2  0
 25 26  1  0
 26 27  1  0
 26 28  2  0
 28 29  1  0
 29 30  2  0
 10 31  1  1
 31 32  2  0
 31 33  1  0
 34 33  1  1
 34 35  1  0
 35 36  1  0
 36 37  1  0
 37 38  1  0
 38 39  1  0
 37 40  1  6
 40 41  1  0
 40 42  2  0
  8  2  1  0
 19 12  1  0
 30 20  1  0
 39 34  1  0
 20  6  1  1
 30 24  1  0
M  END
$$$$
