
     RDKit          3D

 42 47  0  0  0  0  0  0  0  0999 V2000
  170.8601  146.7855  123.0475 C   0  0  0  0  0  0  0  0  0  0  0  0
  170.7370  147.4867  124.4085 C   0  0  0  0  0  0  0  0  0  0  0  0
  172.0883  147.9955  124.8174 C   0  0  0  0  0  0  0  0  0  0  0  0
  170.1315  146.5085  125.3465 C   0  0  0  0  0  0  0  0  0  0  0  0
  169.2377  147.1659  126.4140 C   0  0  0  0  0  0  0  0  0  0  0  0
  168.0010  147.7896  125.8127 C   0  0  0  0  0  0  0  0  0  0  0  0
  168.3550  147.9665  124.3543 C   0  0  0  0  0  0  0  0  0  0  0  0
  169.7460  148.6035  124.2085 C   0  0  0  0  0  0  0  0  0  0  0  0
  166.9719  146.8045  125.8868 N   0  0  0  0  0  0  0  0  0  0  0  0
  165.9550  147.1281  126.8034 C   0  0  2  0  0  0  0  0  0  0  0  0
  166.1130  148.5907  126.9653 C   0  0  2  0  0  0  0  0  0  0  0  0
  164.9791  149.2721  126.3103 C   0  0  0  0  0  0  0  0  0  0  0  0
  164.2251  150.2586  126.9363 C   0  0  0  0  0  0  0  0  0  0  0  0
  164.5374  150.6793  128.1874 F   0  0  0  0  0  0  0  0  0  0  0  0
  163.1514  150.8736  126.3273 C   0  0  0  0  0  0  0  0  0  0  0  0
  162.2415  152.1195  127.1909 Cl  0  0  0  0  0  0  0  0  0  0  0  0
  162.8078  150.5136  125.0723 N   0  0  0  0  0  0  0  0  0  0  0  0
  163.5007  149.5645  124.4138 C   0  0  0  0  0  0  0  0  0  0  0  0
  164.5717  148.9443  125.0095 C   0  0  0  0  0  0  0  0  0  0  0  0
  167.4974  148.9960  126.4893 C   0  0  2  0  0  0  0  0  0  0  0  0
  167.3817  150.2021  125.7407 C   0  0  0  0  0  0  0  0  0  0  0  0
  166.7780  150.5021  124.6410 O   0  0  0  0  0  0  0  0  0  0  0  0
  168.0912  151.2326  126.3839 N   0  0  0  0  0  0  0  0  0  0  0  0
  168.5892  150.6748  127.5948 C   0  0  0  0  0  0  0  0  0  0  0  0
  169.3336  151.2872  128.6307 C   0  0  0  0  0  0  0  0  0  0  0  0
  169.6804  150.5642  129.7472 C   0  0  0  0  0  0  0  0  0  0  0  0
  170.6042  151.3340  131.0269 Cl  0  0  0  0  0  0  0  0  0  0  0  0
  169.2924  149.2431  129.8378 C   0  0  0  0  0  0  0  0  0  0  0  0
  168.5727  148.6102  128.8606 C   0  0  0  0  0  0  0  0  0  0  0  0
  168.2301  149.3768  127.7221 C   0  0  0  0  0  0  0  0  0  0  0  0
  165.8471  146.3145  128.0190 C   0  0  0  0  0  0  0  0  0  0  0  0
  166.7935  145.4947  128.2422 O   0  0  0  0  0  0  0  0  0  0  0  0
  164.7472  146.4318  128.9018 N   0  0  0  0  0  0  0  0  0  0  0  0
  163.7468  145.4181  128.9186 C   0  0  2  0  0  0  0  0  0  0  0  0
  162.5908  145.8036  129.8214 C   0  0  0  0  0  0  0  0  0  0  0  0
  162.2001  144.7177  130.7706 C   0  0  0  0  0  0  0  0  0  0  0  0
  162.2260  143.3490  130.1569 C   0  0  2  0  0  0  0  0  0  0  0  0
  163.2291  143.1585  129.2380 O   0  0  0  0  0  0  0  0  0  0  0  0
  164.2559  144.0842  129.4185 C   0  0  0  0  0  0  0  0  0  0  0  0
  160.8789  142.9819  129.5918 C   0  0  0  0  0  0  0  0  0  0  0  0
  159.7669  142.8160  130.4509 N   0  0  0  0  0  0  0  0  0  0  0  0
  160.8070  142.8365  128.3463 O   0  0  0  0  0  0  0  0  0  0  0  0
  1  2  1  0
  2  3  1  0
  2  4  1  0
  4  5  1  0
  5  6  1  0
  6  7  1  0
  7  8  1  0
  6  9  1  0
  9 10  1  0
 10 11  1  0
 11 12  1  6
 12 13  2  0
 13 14  1  0
 13 15  1  0
 15 16  1  0
 15 17  2  0
 17 18  1  0
 18 19  2  0
 11 20  1  0
 20 21  1  0
 21 22  2  0
 21 23  1  0
 23 24  1  0
 24 25  2  0
 25 26  1  0
 26 27  1  0
 26 28  2  0
 28 29  1  0
 29 30  2  0
 10 31  1  1
 31 32  2  0
 31 33  1  0
 34 33  1  1
 34 35  1  0
 35 36  1  0
 36 37  1  0
 37 38  1  0
 38 39  1  0
 37 40  1  6
 40 41  1  0
 40 42  2  0
  8  2  1  0
 19 12  1  0
 30 20  1  0
 39 34  1  0
 20  6  1  6
 30 24  1  0
M  END
$$$$
