
     RDKit          3D

 42 47  0  0  0  0  0  0  0  0999 V2000
  132.0922  142.4414  135.9549 C   0  0  0  0  0  0  0  0  0  0  0  0
  131.8781  143.9597  136.0454 C   0  0  0  0  0  0  0  0  0  0  0  0
  133.2151  144.6411  136.0317 C   0  0  0  0  0  0  0  0  0  0  0  0
  131.0653  144.2107  137.2618 C   0  0  0  0  0  0  0  0  0  0  0  0
  130.1214  145.4191  137.1212 C   0  0  0  0  0  0  0  0  0  0  0  0
  129.0379  145.1765  136.0977 C   0  0  0  0  0  0  0  0  0  0  0  0
  129.5828  144.0494  135.2513 C   0  0  0  0  0  0  0  0  0  0  0  0
  131.0396  144.3295  134.8498 C   0  0  0  0  0  0  0  0  0  0  0  0
  127.9111  144.6700  136.8109 N   0  0  0  0  0  0  0  0  0  0  0  0
  126.8295  145.5683  136.8554 C   0  0  2  0  0  0  0  0  0  0  0  0
  127.1172  146.4838  135.7288 C   0  0  2  0  0  0  0  0  0  0  0  0
  126.1478  146.2311  134.6445 C   0  0  0  0  0  0  0  0  0  0  0  0
  125.2207  147.1777  134.2224 C   0  0  0  0  0  0  0  0  0  0  0  0
  125.1996  148.4184  134.7701 F   0  0  0  0  0  0  0  0  0  0  0  0
  124.3014  146.9263  133.2256 C   0  0  0  0  0  0  0  0  0  0  0  0
  123.1538  148.1828  132.7459 Cl  0  0  0  0  0  0  0  0  0  0  0  0
  124.2904  145.7167  132.6262 N   0  0  0  0  0  0  0  0  0  0  0  0
  125.1645  144.7590  132.9911 C   0  0  0  0  0  0  0  0  0  0  0  0
  126.0847  144.9969  133.9827 C   0  0  0  0  0  0  0  0  0  0  0  0
  128.5836  146.3613  135.3518 C   0  0  2  0  0  0  0  0  0  0  0  0
  128.6850  146.3556  133.9311 C   0  0  0  0  0  0  0  0  0  0  0  0
  128.2536  145.5507  133.0202 O   0  0  0  0  0  0  0  0  0  0  0  0
  129.4140  147.4790  133.5005 N   0  0  0  0  0  0  0  0  0  0  0  0
  129.7009  148.2373  134.6701 C   0  0  0  0  0  0  0  0  0  0  0  0
  130.3735  149.4755  134.7997 C   0  0  0  0  0  0  0  0  0  0  0  0
  130.5054  150.0593  136.0372 C   0  0  0  0  0  0  0  0  0  0  0  0
  131.3418  151.5961  136.1868 Cl  0  0  0  0  0  0  0  0  0  0  0  0
  129.9747  149.4213  137.1396 C   0  0  0  0  0  0  0  0  0  0  0  0
  129.3174  148.2233  137.0613 C   0  0  0  0  0  0  0  0  0  0  0  0
  129.1966  147.6440  135.7764 C   0  0  0  0  0  0  0  0  0  0  0  0
  126.4913  146.1661  138.1514 C   0  0  0  0  0  0  0  0  0  0  0  0
  126.8609  147.3685  138.3384 O   0  0  0  0  0  0  0  0  0  0  0  0
  125.7897  145.4451  139.1469 N   0  0  0  0  0  0  0  0  0  0  0  0
  125.0425  144.2883  138.7833 C   0  0  2  0  0  0  0  0  0  0  0  0
  124.0304  143.9303  139.8546 C   0  0  0  0  0  0  0  0  0  0  0  0
  124.0646  142.4855  140.2347 C   0  0  0  0  0  0  0  0  0  0  0  0
  124.2518  141.5639  139.0659 C   0  0  2  0  0  0  0  0  0  0  0  0
  125.0739  142.0562  138.0817 O   0  0  0  0  0  0  0  0  0  0  0  0
  125.9029  143.0612  138.5779 C   0  0  0  0  0  0  0  0  0  0  0  0
  122.9255  141.1171  138.5090 C   0  0  0  0  0  0  0  0  0  0  0  0
  122.3628  139.8830  138.9118 N   0  0  0  0  0  0  0  0  0  0  0  0
  122.3669  141.8866  137.6884 O   0  0  0  0  0  0  0  0  0  0  0  0
  1  2  1  0
  2  3  1  0
  2  4  1  0
  4  5  1  0
  5  6  1  0
  6  7  1  0
  7  8  1  0
  6  9  1  0
  9 10  1  0
 10 11  1  0
 11 12  1  6
 12 13  2  0
 13 14  1  0
 13 15  1  0
 15 16  1  0
 15 17  2  0
 17 18  1  0
 18 19  2  0
 11 20  1  0
 20 21  1  0
 21 22  2  0
 21 23  1  0
 23 24  1  0
 24 25  2  0
 25 26  1  0
 26 27  1  0
 26 28  2  0
 28 29  1  0
 29 30  2  0
 10 31  1  1
 31 32  2  0
 31 33  1  0
 34 33  1  1
 34 35  1  0
 35 36  1  0
 36 37  1  0
 37 38  1  0
 38 39  1  0
 37 40  1  6
 40 41  1  0
 40 42  2  0
  8  2  1  0
 19 12  1  0
 30 20  1  0
 39 34  1  0
 20  6  1  1
 30 24  1  0
M  END
$$$$
