
     RDKit          3D

 42 47  0  0  0  0  0  0  0  0999 V2000
  169.6532  150.0569  123.3862 C   0  0  0  0  0  0  0  0  0  0  0  0
  168.8865  150.9680  124.3563 C   0  0  0  0  0  0  0  0  0  0  0  0
  169.2872  152.3923  124.1053 C   0  0  0  0  0  0  0  0  0  0  0  0
  169.1692  150.4756  125.7278 C   0  0  0  0  0  0  0  0  0  0  0  0
  167.9892  150.6718  126.6973 C   0  0  0  0  0  0  0  0  0  0  0  0
  166.8012  149.8172  126.3252 C   0  0  0  0  0  0  0  0  0  0  0  0
  167.0402  149.4744  124.8730 C   0  0  0  0  0  0  0  0  0  0  0  0
  167.4254  150.7311  124.0766 C   0  0  0  0  0  0  0  0  0  0  0  0
  166.9186  148.6093  127.0750 N   0  0  0  0  0  0  0  0  0  0  0  0
  165.9375  148.4754  128.0741 C   0  0  2  0  0  0  0  0  0  0  0  0
  164.8829  149.4119  127.6254 C   0  0  2  0  0  0  0  0  0  0  0  0
  163.7198  148.6354  127.1529 C   0  0  0  0  0  0  0  0  0  0  0  0
  162.4827  148.6638  127.7874 C   0  0  0  0  0  0  0  0  0  0  0  0
  162.2750  149.4619  128.8642 F   0  0  0  0  0  0  0  0  0  0  0  0
  161.4072  147.9165  127.3551 C   0  0  0  0  0  0  0  0  0  0  0  0
  159.8661  148.0069  128.2170 Cl  0  0  0  0  0  0  0  0  0  0  0  0
  161.5467  147.1215  126.2729 N   0  0  0  0  0  0  0  0  0  0  0  0
  162.7205  147.0523  125.6157 C   0  0  0  0  0  0  0  0  0  0  0  0
  163.7992  147.7913  126.0365 C   0  0  0  0  0  0  0  0  0  0  0  0
  165.4794  150.3898  126.6277 C   0  0  2  0  0  0  0  0  0  0  0  0
  164.5514  150.5692  125.5622 C   0  0  0  0  0  0  0  0  0  0  0  0
  164.0615  149.7696  124.6766 O   0  0  0  0  0  0  0  0  0  0  0  0
  164.1233  151.9087  125.5231 N   0  0  0  0  0  0  0  0  0  0  0  0
  164.7359  152.5531  126.6342 C   0  0  0  0  0  0  0  0  0  0  0  0
  164.6119  153.8895  127.0826 C   0  0  0  0  0  0  0  0  0  0  0  0
  165.2689  154.2963  128.2195 C   0  0  0  0  0  0  0  0  0  0  0  0
  165.1081  155.9570  128.7672 Cl  0  0  0  0  0  0  0  0  0  0  0  0
  166.0436  153.3858  128.9084 C   0  0  0  0  0  0  0  0  0  0  0  0
  166.1926  152.0844  128.5113 C   0  0  0  0  0  0  0  0  0  0  0  0
  165.5068  151.6924  127.3378 C   0  0  0  0  0  0  0  0  0  0  0  0
  166.3717  148.5558  129.4727 C   0  0  0  0  0  0  0  0  0  0  0  0
  166.2604  149.6887  130.0400 O   0  0  0  0  0  0  0  0  0  0  0  0
  166.8896  147.4325  130.1604 N   0  0  0  0  0  0  0  0  0  0  0  0
  167.9716  146.6986  129.5955 C   0  0  2  0  0  0  0  0  0  0  0  0
  168.2937  145.4707  130.4254 C   0  0  0  0  0  0  0  0  0  0  0  0
  169.7506  145.3322  130.7272 C   0  0  0  0  0  0  0  0  0  0  0  0
  170.6374  145.6886  129.5709 C   0  0  2  0  0  0  0  0  0  0  0  0
  170.1706  146.7222  128.7959 O   0  0  0  0  0  0  0  0  0  0  0  0
  169.2512  147.4995  129.4987 C   0  0  0  0  0  0  0  0  0  0  0  0
  170.9608  144.4744  128.7402 C   0  0  0  0  0  0  0  0  0  0  0  0
  172.3076  144.1151  128.4975 N   0  0  0  0  0  0  0  0  0  0  0  0
  169.9878  143.8201  128.2898 O   0  0  0  0  0  0  0  0  0  0  0  0
  1  2  1  0
  2  3  1  0
  2  4  1  0
  4  5  1  0
  5  6  1  0
  6  7  1  0
  7  8  1  0
  6  9  1  0
  9 10  1  0
 10 11  1  0
 11 12  1  6
 12 13  2  0
 13 14  1  0
 13 15  1  0
 15 16  1  0
 15 17  2  0
 17 18  1  0
 18 19  2  0
 11 20  1  0
 20 21  1  0
 21 22  2  0
 21 23  1  0
 23 24  1  0
 24 25  2  0
 25 26  1  0
 26 27  1  0
 26 28  2  0
 28 29  1  0
 29 30  2  0
 10 31  1  1
 31 32  2  0
 31 33  1  0
 34 33  1  1
 34 35  1  0
 35 36  1  0
 36 37  1  0
 37 38  1  0
 38 39  1  0
 37 40  1  6
 40 41  1  0
 40 42  2  0
  8  2  1  0
 19 12  1  0
 30 20  1  0
 39 34  1  0
 20  6  1  6
 30 24  1  0
M  END
$$$$
