
     RDKit          3D

 42 47  0  0  0  0  0  0  0  0999 V2000
  193.4959  143.1412  129.9666 C   0  0  0  0  0  0  0  0  0  0  0  0
  192.4238  142.9471  128.8841 C   0  0  0  0  0  0  0  0  0  0  0  0
  192.2032  144.2530  128.1783 C   0  0  0  0  0  0  0  0  0  0  0  0
  191.2223  142.3948  129.5585 C   0  0  0  0  0  0  0  0  0  0  0  0
  190.4105  141.4399  128.6642 C   0  0  0  0  0  0  0  0  0  0  0  0
  191.1704  140.1734  128.3501 C   0  0  0  0  0  0  0  0  0  0  0  0
  192.6124  140.5390  128.6155 C   0  0  0  0  0  0  0  0  0  0  0  0
  192.9591  141.8849  127.9597 C   0  0  0  0  0  0  0  0  0  0  0  0
  190.7844  139.2136  129.3323 N   0  0  0  0  0  0  0  0  0  0  0  0
  190.0103  138.1615  128.8101 C   0  0  2  0  0  0  0  0  0  0  0  0
  190.3174  138.2155  127.3633 C   0  0  2  0  0  0  0  0  0  0  0  0
  191.1470  137.0485  127.0041 C   0  0  0  0  0  0  0  0  0  0  0  0
  190.7245  136.0636  126.1180 C   0  0  0  0  0  0  0  0  0  0  0  0
  189.5233  136.1613  125.4956 F   0  0  0  0  0  0  0  0  0  0  0  0
  191.4948  134.9630  125.8060 C   0  0  0  0  0  0  0  0  0  0  0  0
  190.8859  133.7530  124.6696 Cl  0  0  0  0  0  0  0  0  0  0  0  0
  192.7106  134.8239  126.3760 N   0  0  0  0  0  0  0  0  0  0  0  0
  193.1751  135.7454  127.2417 C   0  0  0  0  0  0  0  0  0  0  0  0
  192.4175  136.8457  127.5610 C   0  0  0  0  0  0  0  0  0  0  0  0
  190.9046  139.5765  127.0311 C   0  0  2  0  0  0  0  0  0  0  0  0
  191.9938  139.3905  126.1324 C   0  0  0  0  0  0  0  0  0  0  0  0
  193.1286  138.7861  126.2365 O   0  0  0  0  0  0  0  0  0  0  0  0
  191.7113  140.0162  124.9046 N   0  0  0  0  0  0  0  0  0  0  0  0
  190.3894  140.5311  125.0171 C   0  0  0  0  0  0  0  0  0  0  0  0
  189.6028  141.2139  124.0593 C   0  0  0  0  0  0  0  0  0  0  0  0
  188.3176  141.5908  124.3686 C   0  0  0  0  0  0  0  0  0  0  0  0
  187.3501  142.4376  123.1726 Cl  0  0  0  0  0  0  0  0  0  0  0  0
  187.8140  141.2934  125.6184 C   0  0  0  0  0  0  0  0  0  0  0  0
  188.5385  140.6357  126.5755 C   0  0  0  0  0  0  0  0  0  0  0  0
  189.8583  140.2602  126.2315 C   0  0  0  0  0  0  0  0  0  0  0  0
  188.5999  138.0896  129.2063 C   0  0  0  0  0  0  0  0  0  0  0  0
  187.7413  138.3699  128.3109 O   0  0  0  0  0  0  0  0  0  0  0  0
  188.2094  137.7275  130.5175 N   0  0  0  0  0  0  0  0  0  0  0  0
  188.3602  136.3788  130.9498 C   0  0  2  0  0  0  0  0  0  0  0  0
  188.3788  136.2871  132.4635 C   0  0  0  0  0  0  0  0  0  0  0  0
  189.5104  135.4639  132.9877 C   0  0  0  0  0  0  0  0  0  0  0  0
  189.7800  134.2319  132.1754 C   0  0  2  0  0  0  0  0  0  0  0  0
  189.5861  134.3895  130.8247 O   0  0  0  0  0  0  0  0  0  0  0  0
  189.6404  135.7353  130.4647 C   0  0  0  0  0  0  0  0  0  0  0  0
  189.0153  133.0500  132.7115 C   0  0  0  0  0  0  0  0  0  0  0  0
  188.0229  132.4248  131.9201 N   0  0  0  0  0  0  0  0  0  0  0  0
  189.3056  132.6658  133.8715 O   0  0  0  0  0  0  0  0  0  0  0  0
  1  2  1  0
  2  3  1  0
  2  4  1  0
  4  5  1  0
  5  6  1  0
  6  7  1  0
  7  8  1  0
  6  9  1  0
  9 10  1  0
 10 11  1  0
 11 12  1  1
 12 13  2  0
 13 14  1  0
 13 15  1  0
 15 16  1  0
 15 17  2  0
 17 18  1  0
 18 19  2  0
 11 20  1  0
 20 21  1  0
 21 22  2  0
 21 23  1  0
 23 24  1  0
 24 25  2  0
 25 26  1  0
 26 27  1  0
 26 28  2  0
 28 29  1  0
 29 30  2  0
 10 31  1  6
 31 32  2  0
 31 33  1  0
 34 33  1  1
 34 35  1  0
 35 36  1  0
 36 37  1  0
 37 38  1  0
 38 39  1  0
 37 40  1  1
 40 41  1  0
 40 42  2  0
  8  2  1  0
 19 12  1  0
 30 20  1  0
 39 34  1  0
 20  6  1  1
 30 24  1  0
M  END
$$$$
