
     RDKit          3D

 34 38  0  0  0  0  0  0  0  0999 V2000
  133.5959  140.0062  125.9530 C   0  0  0  0  0  0  0  0  0  0  0  0
  133.3012  140.7249  127.1997 N   0  0  0  0  0  0  0  0  0  0  0  0
  132.5718  140.1423  128.2441 C   0  0  0  0  0  0  0  0  0  0  0  0
  132.1761  138.9595  128.0855 O   0  0  0  0  0  0  0  0  0  0  0  0
  132.2555  140.8385  129.4910 C   0  0  0  0  0  0  0  0  0  0  0  0
  131.3492  140.2842  130.3765 C   0  0  0  0  0  0  0  0  0  0  0  0
  130.9896  140.8642  131.5711 C   0  0  0  0  0  0  0  0  0  0  0  0
  131.5755  142.0629  131.8844 C   0  0  0  0  0  0  0  0  0  0  0  0
  132.4979  142.6716  131.0301 C   0  0  0  0  0  0  0  0  0  0  0  0
  132.8171  142.0405  129.8472 C   0  0  0  0  0  0  0  0  0  0  0  0
  130.0112  140.2085  132.4664 C   0  0  0  0  0  0  0  0  0  0  0  0
  129.5494  138.9315  132.2718 C   0  0  0  0  0  0  0  0  0  0  0  0
  128.6381  138.3032  133.0947 C   0  0  0  0  0  0  0  0  0  0  0  0
  128.1559  138.9923  134.1826 C   0  0  0  0  0  0  0  0  0  0  0  0
  128.6418  140.2880  134.3561 C   0  0  0  0  0  0  0  0  0  0  0  0
  128.1498  140.9570  135.4328 N   0  0  0  0  0  0  0  0  0  0  0  0
  127.2611  140.4355  136.2843 C   0  0  0  0  0  0  0  0  0  0  0  0
  126.8178  139.1773  136.0787 N   0  0  0  0  0  0  0  0  0  0  0  0
  127.2416  138.4280  135.0424 C   0  0  0  0  0  0  0  0  0  0  0  0
  126.7804  137.0929  134.8468 N   0  0  0  0  0  0  0  0  0  0  0  0
  126.0832  136.3218  135.8574 C   0  0  0  0  0  0  0  0  0  0  0  0
  126.4103  134.8776  135.6403 C   0  0  0  0  0  0  0  0  0  0  0  0
  127.6039  134.6100  135.0367 O   0  0  0  0  0  0  0  0  0  0  0  0
  127.8486  135.2145  133.8364 C   0  0  0  0  0  0  0  0  0  0  0  0
  126.9765  136.3932  133.5816 C   0  0  2  0  0  0  0  0  0  0  0  0
  127.4570  137.2958  132.4967 C   0  0  0  0  0  0  0  0  0  0  0  0
  126.8141  141.2184  137.3725 N   0  0  0  0  0  0  0  0  0  0  0  0
  127.2304  142.5964  137.5757 C   0  0  0  0  0  0  0  0  0  0  0  0
  125.9993  143.3848  137.9690 C   0  0  0  0  0  0  0  0  0  0  0  0
  125.5392  142.8521  139.1771 O   0  0  0  0  0  0  0  0  0  0  0  0
  124.8990  141.6347  138.8608 C   0  0  0  0  0  0  0  0  0  0  0  0
  125.9039  140.6358  138.3316 C   0  0  2  0  0  0  0  0  0  0  0  0
  126.6395  139.9454  139.4607 C   0  0  0  0  0  0  0  0  0  0  0  0
  129.5298  140.8696  133.5344 N   0  0  0  0  0  0  0  0  0  0  0  0
  1  2  1  0
  2  3  1  0
  3  4  2  0
  3  5  1  0
  5  6  2  0
  6  7  1  0
  7  8  2  0
  8  9  1  0
  9 10  2  0
  7 11  1  0
 11 12  2  0
 12 13  1  0
 13 14  2  0
 14 15  1  0
 15 16  1  0
 16 17  2  0
 17 18  1  0
 18 19  2  0
 19 20  1  0
 20 21  1  0
 21 22  1  0
 22 23  1  0
 23 24  1  0
 24 25  1  0
 25 26  1  6
 17 27  1  0
 27 28  1  0
 28 29  1  0
 29 30  1  0
 30 31  1  0
 31 32  1  0
 32 33  1  1
 15 34  2  0
 10  5  1  0
 34 11  1  0
 19 14  1  0
 25 20  1  0
 32 27  1  0
M  END
$$$$
