
     RDKit          3D

 34 38  0  0  0  0  0  0  0  0999 V2000
  190.4654  166.5459  112.0446 C   0  0  0  0  0  0  0  0  0  0  0  0
  191.3757  165.4520  112.4083 N   0  0  0  0  0  0  0  0  0  0  0  0
  191.2489  164.7418  113.6091 C   0  0  0  0  0  0  0  0  0  0  0  0
  190.4082  165.1610  114.4446 O   0  0  0  0  0  0  0  0  0  0  0  0
  192.0390  163.5530  113.9283 C   0  0  0  0  0  0  0  0  0  0  0  0
  191.8312  162.8906  115.1245 C   0  0  0  0  0  0  0  0  0  0  0  0
  192.5244  161.7668  115.5107 C   0  0  0  0  0  0  0  0  0  0  0  0
  193.4737  161.2905  114.6444 C   0  0  0  0  0  0  0  0  0  0  0  0
  193.7283  161.9166  113.4220 C   0  0  0  0  0  0  0  0  0  0  0  0
  193.0004  163.0393  113.0921 C   0  0  0  0  0  0  0  0  0  0  0  0
  192.2445  161.1137  116.8084 C   0  0  0  0  0  0  0  0  0  0  0  0
  191.3112  161.5783  117.6999 C   0  0  0  0  0  0  0  0  0  0  0  0
  191.0359  160.9839  118.9137 C   0  0  0  0  0  0  0  0  0  0  0  0
  191.7360  159.8525  119.2614 C   0  0  0  0  0  0  0  0  0  0  0  0
  192.6784  159.4026  118.3369 C   0  0  0  0  0  0  0  0  0  0  0  0
  193.3658  158.2868  118.6994 N   0  0  0  0  0  0  0  0  0  0  0  0
  193.1740  157.6433  119.8552 C   0  0  0  0  0  0  0  0  0  0  0  0
  192.2510  158.1133  120.7208 N   0  0  0  0  0  0  0  0  0  0  0  0
  191.5155  159.2111  120.4587 C   0  0  0  0  0  0  0  0  0  0  0  0
  190.5298  159.6867  121.3729 N   0  0  0  0  0  0  0  0  0  0  0  0
  190.7148  159.7328  122.8101 C   0  0  0  0  0  0  0  0  0  0  0  0
  189.3752  159.5492  123.4519 C   0  0  0  0  0  0  0  0  0  0  0  0
  188.4489  158.8517  122.7336 O   0  0  0  0  0  0  0  0  0  0  0  0
  188.1798  159.2876  121.4673 C   0  0  0  0  0  0  0  0  0  0  0  0
  189.2352  160.1793  120.9143 C   0  0  2  0  0  0  0  0  0  0  0  0
  189.1820  160.3584  119.4353 C   0  0  0  0  0  0  0  0  0  0  0  0
  193.9436  156.4913  120.1337 N   0  0  0  0  0  0  0  0  0  0  0  0
  193.8871  155.7948  121.4085 C   0  0  0  0  0  0  0  0  0  0  0  0
  193.8481  154.3114  121.1092 C   0  0  0  0  0  0  0  0  0  0  0  0
  195.0420  153.9930  120.4547 O   0  0  0  0  0  0  0  0  0  0  0  0
  194.9113  154.4633  119.1304 C   0  0  0  0  0  0  0  0  0  0  0  0
  194.8288  155.9735  119.1159 C   0  0  2  0  0  0  0  0  0  0  0  0
  196.2052  156.5997  119.1930 C   0  0  0  0  0  0  0  0  0  0  0  0
  192.9213  160.0066  117.1629 N   0  0  0  0  0  0  0  0  0  0  0  0
  1  2  1  0
  2  3  1  0
  3  4  2  0
  3  5  1  0
  5  6  2  0
  6  7  1  0
  7  8  2  0
  8  9  1  0
  9 10  2  0
  7 11  1  0
 11 12  2  0
 12 13  1  0
 13 14  2  0
 14 15  1  0
 15 16  1  0
 16 17  2  0
 17 18  1  0
 18 19  2  0
 19 20  1  0
 20 21  1  0
 21 22  1  0
 22 23  1  0
 23 24  1  0
 24 25  1  0
 25 26  1  6
 17 27  1  0
 27 28  1  0
 28 29  1  0
 29 30  1  0
 30 31  1  0
 31 32  1  0
 32 33  1  1
 15 34  2  0
 10  5  1  0
 34 11  1  0
 19 14  1  0
 25 20  1  0
 32 27  1  0
M  END
$$$$
