
     RDKit          3D

 34 38  0  0  0  0  0  0  0  0999 V2000
  190.7017  154.5666  130.5240 C   0  0  0  0  0  0  0  0  0  0  0  0
  190.3059  154.4243  129.1165 N   0  0  0  0  0  0  0  0  0  0  0  0
  190.8442  155.2284  128.1036 C   0  0  0  0  0  0  0  0  0  0  0  0
  192.0966  155.3129  128.0345 O   0  0  0  0  0  0  0  0  0  0  0  0
  190.0261  155.9621  127.1384 C   0  0  0  0  0  0  0  0  0  0  0  0
  190.6312  156.6104  126.0770 C   0  0  0  0  0  0  0  0  0  0  0  0
  189.9458  157.3239  125.1211 C   0  0  0  0  0  0  0  0  0  0  0  0
  188.5823  157.3841  125.2453 C   0  0  0  0  0  0  0  0  0  0  0  0
  187.9148  156.7497  126.2957 C   0  0  0  0  0  0  0  0  0  0  0  0
  188.6577  156.0501  127.2219 C   0  0  0  0  0  0  0  0  0  0  0  0
  190.6655  157.9911  124.0140 C   0  0  0  0  0  0  0  0  0  0  0  0
  190.4357  159.2910  123.6411 C   0  0  0  0  0  0  0  0  0  0  0  0
  191.0959  159.9304  122.6126 C   0  0  0  0  0  0  0  0  0  0  0  0
  192.0473  159.2286  121.9103 C   0  0  0  0  0  0  0  0  0  0  0  0
  192.2602  157.9096  122.3102 C   0  0  0  0  0  0  0  0  0  0  0  0
  193.1996  157.2285  121.6012 N   0  0  0  0  0  0  0  0  0  0  0  0
  193.8880  157.7594  120.5857 C   0  0  0  0  0  0  0  0  0  0  0  0
  193.6502  159.0403  120.2323 N   0  0  0  0  0  0  0  0  0  0  0  0
  192.7407  159.8030  120.8696 C   0  0  0  0  0  0  0  0  0  0  0  0
  192.5123  161.1610  120.4993 N   0  0  0  0  0  0  0  0  0  0  0  0
  192.4708  161.6294  119.1279 C   0  0  0  0  0  0  0  0  0  0  0  0
  192.9531  163.0461  119.1115 C   0  0  0  0  0  0  0  0  0  0  0  0
  193.8096  163.4070  120.1099 O   0  0  0  0  0  0  0  0  0  0  0  0
  193.4033  163.1845  121.3950 C   0  0  0  0  0  0  0  0  0  0  0  0
  192.2921  162.2002  121.4996 C   0  0  2  0  0  0  0  0  0  0  0  0
  192.0845  161.6438  122.8670 C   0  0  0  0  0  0  0  0  0  0  0  0
  194.8428  156.9625  119.9147 N   0  0  0  0  0  0  0  0  0  0  0  0
  195.4607  157.3610  118.6606 C   0  0  0  0  0  0  0  0  0  0  0  0
  196.9364  157.0399  118.7643 C   0  0  0  0  0  0  0  0  0  0  0  0
  197.0453  155.6546  118.9201 O   0  0  0  0  0  0  0  0  0  0  0  0
  196.6892  155.3719  120.2562 C   0  0  0  0  0  0  0  0  0  0  0  0
  195.2302  155.6948  120.4897 C   0  0  2  0  0  0  0  0  0  0  0  0
  194.3359  154.5661  120.0219 C   0  0  0  0  0  0  0  0  0  0  0  0
  191.5986  157.3178  123.3173 N   0  0  0  0  0  0  0  0  0  0  0  0
  1  2  1  0
  2  3  1  0
  3  4  2  0
  3  5  1  0
  5  6  2  0
  6  7  1  0
  7  8  2  0
  8  9  1  0
  9 10  2  0
  7 11  1  0
 11 12  2  0
 12 13  1  0
 13 14  2  0
 14 15  1  0
 15 16  1  0
 16 17  2  0
 17 18  1  0
 18 19  2  0
 19 20  1  0
 20 21  1  0
 21 22  1  0
 22 23  1  0
 23 24  1  0
 24 25  1  0
 25 26  1  1
 17 27  1  0
 27 28  1  0
 28 29  1  0
 29 30  1  0
 30 31  1  0
 31 32  1  0
 32 33  1  6
 15 34  2  0
 10  5  1  0
 34 11  1  0
 19 14  1  0
 25 20  1  0
 32 27  1  0
M  END
$$$$
