
     RDKit          3D

 34 38  0  0  0  0  0  0  0  0999 V2000
  192.1589  176.3344  113.2390 C   0  0  0  0  0  0  0  0  0  0  0  0
  192.3891  176.5129  114.6788 N   0  0  0  0  0  0  0  0  0  0  0  0
  191.3839  176.2933  115.6294 C   0  0  0  0  0  0  0  0  0  0  0  0
  191.1172  177.2344  116.4191 O   0  0  0  0  0  0  0  0  0  0  0  0
  190.6431  175.0371  115.7417 C   0  0  0  0  0  0  0  0  0  0  0  0
  190.3571  174.5173  116.9911 C   0  0  0  0  0  0  0  0  0  0  0  0
  189.6673  173.3448  117.1957 C   0  0  0  0  0  0  0  0  0  0  0  0
  189.2466  172.6655  116.0821 C   0  0  0  0  0  0  0  0  0  0  0  0
  189.5055  173.1407  114.7943 C   0  0  0  0  0  0  0  0  0  0  0  0
  190.2016  174.3219  114.6550 C   0  0  0  0  0  0  0  0  0  0  0  0
  189.4001  172.8530  118.5653 C   0  0  0  0  0  0  0  0  0  0  0  0
  188.6317  171.7487  118.8328 C   0  0  0  0  0  0  0  0  0  0  0  0
  188.3714  171.2747  120.1017 C   0  0  0  0  0  0  0  0  0  0  0  0
  188.9124  171.9449  121.1736 C   0  0  0  0  0  0  0  0  0  0  0  0
  189.6886  173.0639  120.8728 C   0  0  0  0  0  0  0  0  0  0  0  0
  190.2104  173.7181  121.9445 N   0  0  0  0  0  0  0  0  0  0  0  0
  190.0109  173.3392  123.2108 C   0  0  0  0  0  0  0  0  0  0  0  0
  189.2530  172.2496  123.4565 N   0  0  0  0  0  0  0  0  0  0  0  0
  188.6897  171.5299  122.4667 C   0  0  0  0  0  0  0  0  0  0  0  0
  187.9069  170.3693  122.7381 N   0  0  0  0  0  0  0  0  0  0  0  0
  187.9994  169.5996  123.9632 C   0  0  0  0  0  0  0  0  0  0  0  0
  187.6724  168.1760  123.6372 C   0  0  0  0  0  0  0  0  0  0  0  0
  187.9203  167.7743  122.3574 O   0  0  0  0  0  0  0  0  0  0  0  0
  187.3593  168.5076  121.3507 C   0  0  0  0  0  0  0  0  0  0  0  0
  186.9280  169.8655  121.7806 C   0  0  2  0  0  0  0  0  0  0  0  0
  186.6782  170.8188  120.6620 C   0  0  0  0  0  0  0  0  0  0  0  0
  190.6001  174.0916  124.2518 N   0  0  0  0  0  0  0  0  0  0  0  0
  190.3123  173.8535  125.6568 C   0  0  0  0  0  0  0  0  0  0  0  0
  191.6289  173.9123  126.4018 C   0  0  0  0  0  0  0  0  0  0  0  0
  192.1346  175.2058  126.2405 O   0  0  0  0  0  0  0  0  0  0  0  0
  192.6492  175.2747  124.9281 C   0  0  0  0  0  0  0  0  0  0  0  0
  191.5303  175.1458  123.9186 C   0  0  2  0  0  0  0  0  0  0  0  0
  190.8289  176.4704  123.7036 C   0  0  0  0  0  0  0  0  0  0  0  0
  189.9218  173.4980  119.6241 N   0  0  0  0  0  0  0  0  0  0  0  0
  1  2  1  0
  2  3  1  0
  3  4  2  0
  3  5  1  0
  5  6  2  0
  6  7  1  0
  7  8  2  0
  8  9  1  0
  9 10  2  0
  7 11  1  0
 11 12  2  0
 12 13  1  0
 13 14  2  0
 14 15  1  0
 15 16  1  0
 16 17  2  0
 17 18  1  0
 18 19  2  0
 19 20  1  0
 20 21  1  0
 21 22  1  0
 22 23  1  0
 23 24  1  0
 24 25  1  0
 25 26  1  6
 17 27  1  0
 27 28  1  0
 28 29  1  0
 29 30  1  0
 30 31  1  0
 31 32  1  0
 32 33  1  1
 15 34  2  0
 10  5  1  0
 34 11  1  0
 19 14  1  0
 25 20  1  0
 32 27  1  0
M  END
$$$$
