
     RDKit          3D

 34 38  0  0  0  0  0  0  0  0999 V2000
  166.0924  162.4081  104.4225 C   0  0  0  0  0  0  0  0  0  0  0  0
  166.1635  162.4575  105.8889 N   0  0  0  0  0  0  0  0  0  0  0  0
  167.3365  162.1530  106.5912 C   0  0  0  0  0  0  0  0  0  0  0  0
  168.3298  161.7697  105.9226 O   0  0  0  0  0  0  0  0  0  0  0  0
  167.4546  162.2597  108.0453 C   0  0  0  0  0  0  0  0  0  0  0  0
  168.6464  162.6777  108.6091 C   0  0  0  0  0  0  0  0  0  0  0  0
  168.8514  162.8083  109.9631 C   0  0  0  0  0  0  0  0  0  0  0  0
  167.7995  162.5011  110.7863 C   0  0  0  0  0  0  0  0  0  0  0  0
  166.5717  162.0738  110.2755 C   0  0  0  0  0  0  0  0  0  0  0  0
  166.4286  161.9630  108.9092 C   0  0  0  0  0  0  0  0  0  0  0  0
  170.1572  163.2618  110.4905 C   0  0  0  0  0  0  0  0  0  0  0  0
  170.8880  164.2749  109.9237 C   0  0  0  0  0  0  0  0  0  0  0  0
  172.1063  164.7119  110.4003 C   0  0  0  0  0  0  0  0  0  0  0  0
  172.6302  164.0996  111.5145 C   0  0  0  0  0  0  0  0  0  0  0  0
  171.8667  163.0731  112.0699 C   0  0  0  0  0  0  0  0  0  0  0  0
  172.4025  162.4745  113.1670 N   0  0  0  0  0  0  0  0  0  0  0  0
  173.5776  162.8237  113.6998 C   0  0  0  0  0  0  0  0  0  0  0  0
  174.2835  163.8234  113.1302 N   0  0  0  0  0  0  0  0  0  0  0  0
  173.8428  164.4821  112.0408 C   0  0  0  0  0  0  0  0  0  0  0  0
  174.5888  165.5495  111.4596 N   0  0  0  0  0  0  0  0  0  0  0  0
  175.9823  165.8178  111.7563 C   0  0  0  0  0  0  0  0  0  0  0  0
  176.2060  167.2911  111.6183 C   0  0  0  0  0  0  0  0  0  0  0  0
  175.1211  168.0916  111.8252 O   0  0  0  0  0  0  0  0  0  0  0  0
  174.0007  167.8314  111.0883 C   0  0  0  0  0  0  0  0  0  0  0  0
  173.9889  166.4662  110.4959 C   0  0  2  0  0  0  0  0  0  0  0  0
  172.6510  166.0071  110.0252 C   0  0  0  0  0  0  0  0  0  0  0  0
  174.0432  162.1351  114.8426 N   0  0  0  0  0  0  0  0  0  0  0  0
  175.1995  162.5706  115.6087 C   0  0  0  0  0  0  0  0  0  0  0  0
  174.8416  162.4438  117.0742 C   0  0  0  0  0  0  0  0  0  0  0  0
  174.5995  161.0892  117.3220 O   0  0  0  0  0  0  0  0  0  0  0  0
  173.3260  160.8043  116.7844 C   0  0  0  0  0  0  0  0  0  0  0  0
  173.3489  160.9454  115.2787 C   0  0  2  0  0  0  0  0  0  0  0  0
  173.8969  159.6979  114.6182 C   0  0  0  0  0  0  0  0  0  0  0  0
  170.6831  162.6726  111.5793 N   0  0  0  0  0  0  0  0  0  0  0  0
  1  2  1  0
  2  3  1  0
  3  4  2  0
  3  5  1  0
  5  6  2  0
  6  7  1  0
  7  8  2  0
  8  9  1  0
  9 10  2  0
  7 11  1  0
 11 12  2  0
 12 13  1  0
 13 14  2  0
 14 15  1  0
 15 16  1  0
 16 17  2  0
 17 18  1  0
 18 19  2  0
 19 20  1  0
 20 21  1  0
 21 22  1  0
 22 23  1  0
 23 24  1  0
 24 25  1  0
 25 26  1  1
 17 27  1  0
 27 28  1  0
 28 29  1  0
 29 30  1  0
 30 31  1  0
 31 32  1  0
 32 33  1  6
 15 34  2  0
 10  5  1  0
 34 11  1  0
 19 14  1  0
 25 20  1  0
 32 27  1  0
M  END
$$$$
