
     RDKit          3D

 34 38  0  0  0  0  0  0  0  0999 V2000
  131.6682  138.8849  131.5370 C   0  0  0  0  0  0  0  0  0  0  0  0
  131.2418  140.1873  131.0078 N   0  0  0  0  0  0  0  0  0  0  0  0
  130.6377  141.1604  131.8143 C   0  0  0  0  0  0  0  0  0  0  0  0
  130.5508  140.9209  133.0453 O   0  0  0  0  0  0  0  0  0  0  0  0
  130.1121  142.4228  131.2950 C   0  0  0  0  0  0  0  0  0  0  0  0
  129.6422  143.3838  132.1716 C   0  0  0  0  0  0  0  0  0  0  0  0
  129.1307  144.5986  131.7775 C   0  0  0  0  0  0  0  0  0  0  0  0
  129.0929  144.8529  130.4313 C   0  0  0  0  0  0  0  0  0  0  0  0
  129.5530  143.9212  129.4978 C   0  0  0  0  0  0  0  0  0  0  0  0
  130.0543  142.7218  129.9554 C   0  0  0  0  0  0  0  0  0  0  0  0
  128.6467  145.5761  132.7770 C   0  0  0  0  0  0  0  0  0  0  0  0
  128.3302  146.8748  132.4689 C   0  0  0  0  0  0  0  0  0  0  0  0
  127.8776  147.8005  133.3858 C   0  0  0  0  0  0  0  0  0  0  0  0
  127.7305  147.4060  134.6949 C   0  0  0  0  0  0  0  0  0  0  0  0
  128.0597  146.0811  134.9799 C   0  0  0  0  0  0  0  0  0  0  0  0
  127.9145  145.7098  136.2799 N   0  0  0  0  0  0  0  0  0  0  0  0
  127.4879  146.5349  137.2411 C   0  0  0  0  0  0  0  0  0  0  0  0
  127.1798  147.8095  136.9207 N   0  0  0  0  0  0  0  0  0  0  0  0
  127.2880  148.2788  135.6625 C   0  0  0  0  0  0  0  0  0  0  0  0
  126.9410  149.6220  135.3329 N   0  0  0  0  0  0  0  0  0  0  0  0
  126.7834  150.6801  136.3115 C   0  0  0  0  0  0  0  0  0  0  0  0
  125.7647  151.6430  135.7870 C   0  0  0  0  0  0  0  0  0  0  0  0
  124.8387  151.1358  134.9234 O   0  0  0  0  0  0  0  0  0  0  0  0
  125.3044  150.4758  133.8218 C   0  0  0  0  0  0  0  0  0  0  0  0
  126.7209  150.0386  133.9520 C   0  0  2  0  0  0  0  0  0  0  0  0
  127.1418  149.0016  132.9672 C   0  0  0  0  0  0  0  0  0  0  0  0
  127.3731  146.0464  138.5622 N   0  0  0  0  0  0  0  0  0  0  0  0
  127.8596  144.7364  138.9632 C   0  0  0  0  0  0  0  0  0  0  0  0
  128.5607  144.9052  140.2943 C   0  0  0  0  0  0  0  0  0  0  0  0
  127.6017  145.3486  141.2102 O   0  0  0  0  0  0  0  0  0  0  0  0
  127.3813  146.7143  140.9306 C   0  0  0  0  0  0  0  0  0  0  0  0
  126.7471  146.8749  139.5669 C   0  0  2  0  0  0  0  0  0  0  0  0
  125.2503  146.6548  139.6276 C   0  0  0  0  0  0  0  0  0  0  0  0
  128.4980  145.2056  134.0615 N   0  0  0  0  0  0  0  0  0  0  0  0
  1  2  1  0
  2  3  1  0
  3  4  2  0
  3  5  1  0
  5  6  2  0
  6  7  1  0
  7  8  2  0
  8  9  1  0
  9 10  2  0
  7 11  1  0
 11 12  2  0
 12 13  1  0
 13 14  2  0
 14 15  1  0
 15 16  1  0
 16 17  2  0
 17 18  1  0
 18 19  2  0
 19 20  1  0
 20 21  1  0
 21 22  1  0
 22 23  1  0
 23 24  1  0
 24 25  1  0
 25 26  1  6
 17 27  1  0
 27 28  1  0
 28 29  1  0
 29 30  1  0
 30 31  1  0
 31 32  1  0
 32 33  1  1
 15 34  2  0
 10  5  1  0
 34 11  1  0
 19 14  1  0
 25 20  1  0
 32 27  1  0
M  END
$$$$
