
     RDKit          3D

 34 38  0  0  0  0  0  0  0  0999 V2000
  130.7814  178.2010  152.7979 C   0  0  0  0  0  0  0  0  0  0  0  0
  131.1435  179.4987  152.2126 N   0  0  0  0  0  0  0  0  0  0  0  0
  132.3543  179.7031  151.5385 C   0  0  0  0  0  0  0  0  0  0  0  0
  133.1278  178.7187  151.4245 O   0  0  0  0  0  0  0  0  0  0  0  0
  132.7517  180.9912  150.9707 C   0  0  0  0  0  0  0  0  0  0  0  0
  134.0241  181.1505  150.4526 C   0  0  0  0  0  0  0  0  0  0  0  0
  134.4870  182.3218  149.8991 C   0  0  0  0  0  0  0  0  0  0  0  0
  133.6203  183.3831  149.8685 C   0  0  0  0  0  0  0  0  0  0  0  0
  132.3229  183.2827  150.3764 C   0  0  0  0  0  0  0  0  0  0  0  0
  131.9182  182.0819  150.9183 C   0  0  0  0  0  0  0  0  0  0  0  0
  135.8636  182.4142  149.3650 C   0  0  0  0  0  0  0  0  0  0  0  0
  136.6161  181.3180  149.0277 C   0  0  0  0  0  0  0  0  0  0  0  0
  137.9002  181.3835  148.5285 C   0  0  0  0  0  0  0  0  0  0  0  0
  138.4714  182.6221  148.3537 C   0  0  0  0  0  0  0  0  0  0  0  0
  137.6844  183.7186  148.7049 C   0  0  0  0  0  0  0  0  0  0  0  0
  138.2668  184.9351  148.5317 N   0  0  0  0  0  0  0  0  0  0  0  0
  139.5063  185.1007  148.0595 C   0  0  0  0  0  0  0  0  0  0  0  0
  140.2329  184.0114  147.7315 N   0  0  0  0  0  0  0  0  0  0  0  0
  139.7501  182.7607  147.8643 C   0  0  0  0  0  0  0  0  0  0  0  0
  140.5204  181.6186  147.4962 N   0  0  0  0  0  0  0  0  0  0  0  0
  141.9696  181.5812  147.5116 C   0  0  0  0  0  0  0  0  0  0  0  0
  142.4162  180.6337  146.4426 C   0  0  0  0  0  0  0  0  0  0  0  0
  141.5706  180.4702  145.3849 O   0  0  0  0  0  0  0  0  0  0  0  0
  140.2821  180.1115  145.6624 C   0  0  0  0  0  0  0  0  0  0  0  0
  139.8885  180.3732  147.0735 C   0  0  2  0  0  0  0  0  0  0  0  0
  138.4178  180.3659  147.3176 C   0  0  0  0  0  0  0  0  0  0  0  0
  140.0164  186.4110  147.9188 N   0  0  0  0  0  0  0  0  0  0  0  0
  139.1677  187.5914  147.9191 C   0  0  0  0  0  0  0  0  0  0  0  0
  139.8500  188.6356  148.7770 C   0  0  0  0  0  0  0  0  0  0  0  0
  141.0703  188.9369  148.1645 O   0  0  0  0  0  0  0  0  0  0  0  0
  141.9364  187.8580  148.4436 C   0  0  0  0  0  0  0  0  0  0  0  0
  141.4409  186.5991  147.7673 C   0  0  2  0  0  0  0  0  0  0  0  0
  141.8651  186.5524  146.3146 C   0  0  0  0  0  0  0  0  0  0  0  0
  136.4362  183.6185  149.1888 N   0  0  0  0  0  0  0  0  0  0  0  0
  1  2  1  0
  2  3  1  0
  3  4  2  0
  3  5  1  0
  5  6  2  0
  6  7  1  0
  7  8  2  0
  8  9  1  0
  9 10  2  0
  7 11  1  0
 11 12  2  0
 12 13  1  0
 13 14  2  0
 14 15  1  0
 15 16  1  0
 16 17  2  0
 17 18  1  0
 18 19  2  0
 19 20  1  0
 20 21  1  0
 21 22  1  0
 22 23  1  0
 23 24  1  0
 24 25  1  0
 25 26  1  6
 17 27  1  0
 27 28  1  0
 28 29  1  0
 29 30  1  0
 30 31  1  0
 31 32  1  0
 32 33  1  6
 15 34  2  0
 10  5  1  0
 34 11  1  0
 19 14  1  0
 25 20  1  0
 32 27  1  0
M  END
$$$$
