
     RDKit          3D

 34 38  0  0  0  0  0  0  0  0999 V2000
  134.9541  156.4491  121.0761 C   0  0  0  0  0  0  0  0  0  0  0  0
  134.6395  157.2930  122.2365 N   0  0  0  0  0  0  0  0  0  0  0  0
  133.7170  158.3449  122.1676 C   0  0  0  0  0  0  0  0  0  0  0  0
  133.1604  158.5565  121.0604 O   0  0  0  0  0  0  0  0  0  0  0  0
  133.3783  159.1942  123.3093 C   0  0  0  0  0  0  0  0  0  0  0  0
  132.4158  160.1779  123.1724 C   0  0  0  0  0  0  0  0  0  0  0  0
  132.0315  161.0231  124.1875 C   0  0  0  0  0  0  0  0  0  0  0  0
  132.6511  160.8651  125.3997 C   0  0  0  0  0  0  0  0  0  0  0  0
  133.6306  159.8893  125.5987 C   0  0  0  0  0  0  0  0  0  0  0  0
  133.9721  159.0729  124.5422 C   0  0  0  0  0  0  0  0  0  0  0  0
  130.9928  162.0525  123.9628 C   0  0  0  0  0  0  0  0  0  0  0  0
  130.7368  162.6092  122.7354 C   0  0  0  0  0  0  0  0  0  0  0  0
  129.7734  163.5692  122.5058 C   0  0  0  0  0  0  0  0  0  0  0  0
  129.0156  164.0022  123.5685 C   0  0  0  0  0  0  0  0  0  0  0  0
  129.2973  163.4200  124.8040 C   0  0  0  0  0  0  0  0  0  0  0  0
  128.5432  163.8642  125.8447 N   0  0  0  0  0  0  0  0  0  0  0  0
  127.5903  164.7937  125.7232 C   0  0  0  0  0  0  0  0  0  0  0  0
  127.3505  165.3306  124.5081 N   0  0  0  0  0  0  0  0  0  0  0  0
  128.0405  164.9606  123.4118 C   0  0  0  0  0  0  0  0  0  0  0  0
  127.7647  165.5212  122.1300 N   0  0  0  0  0  0  0  0  0  0  0  0
  127.1464  166.8172  121.9300 C   0  0  0  0  0  0  0  0  0  0  0  0
  126.3660  166.7619  120.6541 C   0  0  0  0  0  0  0  0  0  0  0  0
  125.9125  165.5332  120.2730 O   0  0  0  0  0  0  0  0  0  0  0  0
  126.8334  164.5295  120.1704 C   0  0  0  0  0  0  0  0  0  0  0  0
  128.0999  164.8152  120.8979 C   0  0  2  0  0  0  0  0  0  0  0  0
  128.9588  163.6206  121.1381 C   0  0  0  0  0  0  0  0  0  0  0  0
  126.8644  165.1846  126.8709 N   0  0  0  0  0  0  0  0  0  0  0  0
  125.7419  166.1068  126.8174 C   0  0  0  0  0  0  0  0  0  0  0  0
  124.6565  165.5466  127.7118 C   0  0  0  0  0  0  0  0  0  0  0  0
  125.1722  165.5121  129.0110 O   0  0  0  0  0  0  0  0  0  0  0  0
  126.0555  164.4126  129.0631 C   0  0  0  0  0  0  0  0  0  0  0  0
  127.2443  164.6516  128.1590 C   0  0  2  0  0  0  0  0  0  0  0  0
  128.2883  165.5112  128.8399 C   0  0  0  0  0  0  0  0  0  0  0  0
  130.2437  162.4867  124.9921 N   0  0  0  0  0  0  0  0  0  0  0  0
  1  2  1  0
  2  3  1  0
  3  4  2  0
  3  5  1  0
  5  6  2  0
  6  7  1  0
  7  8  2  0
  8  9  1  0
  9 10  2  0
  7 11  1  0
 11 12  2  0
 12 13  1  0
 13 14  2  0
 14 15  1  0
 15 16  1  0
 16 17  2  0
 17 18  1  0
 18 19  2  0
 19 20  1  0
 20 21  1  0
 21 22  1  0
 22 23  1  0
 23 24  1  0
 24 25  1  0
 25 26  1  1
 17 27  1  0
 27 28  1  0
 28 29  1  0
 29 30  1  0
 30 31  1  0
 31 32  1  0
 32 33  1  1
 15 34  2  0
 10  5  1  0
 34 11  1  0
 19 14  1  0
 25 20  1  0
 32 27  1  0
M  END
$$$$
