
     RDKit          3D

 34 38  0  0  0  0  0  0  0  0999 V2000
  177.2725  147.0958  123.2214 C   0  0  0  0  0  0  0  0  0  0  0  0
  175.9695  146.5105  122.8788 N   0  0  0  0  0  0  0  0  0  0  0  0
  174.7718  147.2257  123.0065 C   0  0  0  0  0  0  0  0  0  0  0  0
  174.8377  148.4802  122.9579 O   0  0  0  0  0  0  0  0  0  0  0  0
  173.4689  146.5871  123.1909 C   0  0  0  0  0  0  0  0  0  0  0  0
  172.4022  147.3273  123.6676 C   0  0  0  0  0  0  0  0  0  0  0  0
  171.1422  146.8145  123.8729 C   0  0  0  0  0  0  0  0  0  0  0  0
  170.9527  145.4887  123.5818 C   0  0  0  0  0  0  0  0  0  0  0  0
  171.9917  144.6905  123.0976 C   0  0  0  0  0  0  0  0  0  0  0  0
  173.2317  145.2628  122.9129 C   0  0  0  0  0  0  0  0  0  0  0  0
  170.0509  147.6714  124.3864 C   0  0  0  0  0  0  0  0  0  0  0  0
  170.2530  148.9376  124.8740 C   0  0  0  0  0  0  0  0  0  0  0  0
  169.2494  149.7514  125.3566 C   0  0  0  0  0  0  0  0  0  0  0  0
  167.9604  149.2722  125.3527 C   0  0  0  0  0  0  0  0  0  0  0  0
  167.7840  147.9825  124.8522 C   0  0  0  0  0  0  0  0  0  0  0  0
  166.5046  147.5222  124.8616 N   0  0  0  0  0  0  0  0  0  0  0  0
  165.4665  148.2332  125.3130 C   0  0  0  0  0  0  0  0  0  0  0  0
  165.6828  149.4778  125.7885 N   0  0  0  0  0  0  0  0  0  0  0  0
  166.9117  150.0286  125.8236 C   0  0  0  0  0  0  0  0  0  0  0  0
  167.1246  151.3519  126.3104 N   0  0  0  0  0  0  0  0  0  0  0  0
  166.6228  151.8367  127.5813 C   0  0  0  0  0  0  0  0  0  0  0  0
  166.3637  153.3042  127.4434 C   0  0  0  0  0  0  0  0  0  0  0  0
  166.0809  153.7550  126.1874 O   0  0  0  0  0  0  0  0  0  0  0  0
  166.9751  153.4572  125.1986 C   0  0  0  0  0  0  0  0  0  0  0  0
  167.8873  152.3344  125.5477 C   0  0  2  0  0  0  0  0  0  0  0  0
  168.5983  151.7300  124.3850 C   0  0  0  0  0  0  0  0  0  0  0  0
  164.1758  147.6588  125.2779 N   0  0  0  0  0  0  0  0  0  0  0  0
  163.9003  146.3769  124.6499 C   0  0  0  0  0  0  0  0  0  0  0  0
  162.9798  145.6110  125.5761 C   0  0  0  0  0  0  0  0  0  0  0  0
  161.7950  146.3464  125.6779 O   0  0  0  0  0  0  0  0  0  0  0  0
  162.0706  147.4352  126.5325 C   0  0  0  0  0  0  0  0  0  0  0  0
  163.0740  148.3661  125.8889 C   0  0  2  0  0  0  0  0  0  0  0  0
  162.4012  149.3115  124.9162 C   0  0  0  0  0  0  0  0  0  0  0  0
  168.7849  147.2168  124.3897 N   0  0  0  0  0  0  0  0  0  0  0  0
  1  2  1  0
  2  3  1  0
  3  4  2  0
  3  5  1  0
  5  6  2  0
  6  7  1  0
  7  8  2  0
  8  9  1  0
  9 10  2  0
  7 11  1  0
 11 12  2  0
 12 13  1  0
 13 14  2  0
 14 15  1  0
 15 16  1  0
 16 17  2  0
 17 18  1  0
 18 19  2  0
 19 20  1  0
 20 21  1  0
 21 22  1  0
 22 23  1  0
 23 24  1  0
 24 25  1  0
 25 26  1  6
 17 27  1  0
 27 28  1  0
 28 29  1  0
 29 30  1  0
 30 31  1  0
 31 32  1  0
 32 33  1  6
 15 34  2  0
 10  5  1  0
 34 11  1  0
 19 14  1  0
 25 20  1  0
 32 27  1  0
M  END
$$$$
