
     RDKit          3D

 34 38  0  0  0  0  0  0  0  0999 V2000
  214.2757  138.1763  134.6925 C   0  0  0  0  0  0  0  0  0  0  0  0
  213.5942  136.8869  134.8675 N   0  0  0  0  0  0  0  0  0  0  0  0
  212.2014  136.7604  134.7872 C   0  0  0  0  0  0  0  0  0  0  0  0
  211.5368  137.8029  134.5591 O   0  0  0  0  0  0  0  0  0  0  0  0
  211.4978  135.4890  134.9544 C   0  0  0  0  0  0  0  0  0  0  0  0
  210.1718  135.3826  134.5760 C   0  0  0  0  0  0  0  0  0  0  0  0
  209.4292  134.2307  134.6949 C   0  0  0  0  0  0  0  0  0  0  0  0
  210.0591  133.1335  135.2222 C   0  0  0  0  0  0  0  0  0  0  0  0
  211.3966  133.1800  135.6223 C   0  0  0  0  0  0  0  0  0  0  0  0
  212.0872  134.3638  135.4777 C   0  0  0  0  0  0  0  0  0  0  0  0
  208.0133  134.1955  134.2673 C   0  0  0  0  0  0  0  0  0  0  0  0
  207.2196  133.0823  134.3798 C   0  0  0  0  0  0  0  0  0  0  0  0
  205.8984  133.0298  133.9873 C   0  0  0  0  0  0  0  0  0  0  0  0
  205.3312  134.1603  133.4478 C   0  0  0  0  0  0  0  0  0  0  0  0
  206.1607  135.2768  133.3449 C   0  0  0  0  0  0  0  0  0  0  0  0
  205.5857  136.3837  132.8036 N   0  0  0  0  0  0  0  0  0  0  0  0
  204.3155  136.4295  132.3895 C   0  0  0  0  0  0  0  0  0  0  0  0
  203.5480  135.3255  132.5083 N   0  0  0  0  0  0  0  0  0  0  0  0
  204.0198  134.1770  133.0311 C   0  0  0  0  0  0  0  0  0  0  0  0
  203.1935  133.0231  133.1692 N   0  0  0  0  0  0  0  0  0  0  0  0
  201.9600  132.8191  132.4352 C   0  0  0  0  0  0  0  0  0  0  0  0
  201.0464  131.9987  133.2910 C   0  0  0  0  0  0  0  0  0  0  0  0
  201.2303  132.0935  134.6392 O   0  0  0  0  0  0  0  0  0  0  0  0
  202.4849  131.8462  135.1195 C   0  0  0  0  0  0  0  0  0  0  0  0
  203.5432  131.9356  134.0770 C   0  0  2  0  0  0  0  0  0  0  0  0
  204.9295  132.0592  134.6110 C   0  0  0  0  0  0  0  0  0  0  0  0
  203.8170  137.6324  131.8405 N   0  0  0  0  0  0  0  0  0  0  0  0
  204.6346  138.8236  131.6791 C   0  0  0  0  0  0  0  0  0  0  0  0
  204.3265  139.3988  130.3130 C   0  0  0  0  0  0  0  0  0  0  0  0
  202.9746  139.7558  130.3132 O   0  0  0  0  0  0  0  0  0  0  0  0
  202.2426  138.5554  130.1897 C   0  0  0  0  0  0  0  0  0  0  0  0
  202.4367  137.6940  131.4176 C   0  0  2  0  0  0  0  0  0  0  0  0
  201.5204  138.1265  132.5427 C   0  0  0  0  0  0  0  0  0  0  0  0
  207.4443  135.2931  133.7374 N   0  0  0  0  0  0  0  0  0  0  0  0
  1  2  1  0
  2  3  1  0
  3  4  2  0
  3  5  1  0
  5  6  2  0
  6  7  1  0
  7  8  2  0
  8  9  1  0
  9 10  2  0
  7 11  1  0
 11 12  2  0
 12 13  1  0
 13 14  2  0
 14 15  1  0
 15 16  1  0
 16 17  2  0
 17 18  1  0
 18 19  2  0
 19 20  1  0
 20 21  1  0
 21 22  1  0
 22 23  1  0
 23 24  1  0
 24 25  1  0
 25 26  1  1
 17 27  1  0
 27 28  1  0
 28 29  1  0
 29 30  1  0
 30 31  1  0
 31 32  1  0
 32 33  1  1
 15 34  2  0
 10  5  1  0
 34 11  1  0
 19 14  1  0
 25 20  1  0
 32 27  1  0
M  END
$$$$
