
     RDKit          3D

 34 38  0  0  0  0  0  0  0  0999 V2000
  106.5898  171.6386  145.2859 C   0  0  0  0  0  0  0  0  0  0  0  0
  107.1534  170.9635  144.1093 N   0  0  0  0  0  0  0  0  0  0  0  0
  108.5242  170.7060  143.9804 C   0  0  0  0  0  0  0  0  0  0  0  0
  109.2549  170.9432  144.9756 O   0  0  0  0  0  0  0  0  0  0  0  0
  109.1331  170.1818  142.7581 C   0  0  0  0  0  0  0  0  0  0  0  0
  110.3428  169.5147  142.8246 C   0  0  0  0  0  0  0  0  0  0  0  0
  110.9906  168.9879  141.7312 C   0  0  0  0  0  0  0  0  0  0  0  0
  110.3848  169.1439  140.5117 C   0  0  0  0  0  0  0  0  0  0  0  0
  109.1630  169.8083  140.3817 C   0  0  0  0  0  0  0  0  0  0  0  0
  108.5636  170.3139  141.5150 C   0  0  0  0  0  0  0  0  0  0  0  0
  112.2845  168.2868  141.8833 C   0  0  0  0  0  0  0  0  0  0  0  0
  113.1545  168.5265  142.9165 C   0  0  0  0  0  0  0  0  0  0  0  0
  114.3643  167.8836  143.0757 C   0  0  0  0  0  0  0  0  0  0  0  0
  114.7308  166.9401  142.1449 C   0  0  0  0  0  0  0  0  0  0  0  0
  113.8281  166.7168  141.1055 C   0  0  0  0  0  0  0  0  0  0  0  0
  114.2090  165.7856  140.1908 N   0  0  0  0  0  0  0  0  0  0  0  0
  115.3628  165.1138  140.2564 C   0  0  0  0  0  0  0  0  0  0  0  0
  116.2071  165.3612  141.2802 N   0  0  0  0  0  0  0  0  0  0  0  0
  115.9256  166.2639  142.2397 C   0  0  0  0  0  0  0  0  0  0  0  0
  116.8170  166.5024  143.3269 N   0  0  0  0  0  0  0  0  0  0  0  0
  118.1546  165.9497  143.4124 C   0  0  0  0  0  0  0  0  0  0  0  0
  118.4811  165.7586  144.8604 C   0  0  0  0  0  0  0  0  0  0  0  0
  117.4238  165.5658  145.7004 O   0  0  0  0  0  0  0  0  0  0  0  0
  116.4290  166.5017  145.6806 C   0  0  0  0  0  0  0  0  0  0  0  0
  116.4389  167.3464  144.4555 C   0  0  2  0  0  0  0  0  0  0  0  0
  115.1742  168.0969  144.2106 C   0  0  0  0  0  0  0  0  0  0  0  0
  115.6617  164.1661  139.2517 N   0  0  0  0  0  0  0  0  0  0  0  0
  114.7107  163.7839  138.2207 C   0  0  0  0  0  0  0  0  0  0  0  0
  115.4665  163.7282  136.9101 C   0  0  0  0  0  0  0  0  0  0  0  0
  116.4408  162.7337  137.0398 O   0  0  0  0  0  0  0  0  0  0  0  0
  117.4696  163.2813  137.8358 C   0  0  0  0  0  0  0  0  0  0  0  0
  116.9653  163.5431  139.2375 C   0  0  2  0  0  0  0  0  0  0  0  0
  116.9981  162.2836  140.0774 C   0  0  0  0  0  0  0  0  0  0  0  0
  112.6573  167.3616  140.9809 N   0  0  0  0  0  0  0  0  0  0  0  0
  1  2  1  0
  2  3  1  0
  3  4  2  0
  3  5  1  0
  5  6  2  0
  6  7  1  0
  7  8  2  0
  8  9  1  0
  9 10  2  0
  7 11  1  0
 11 12  2  0
 12 13  1  0
 13 14  2  0
 14 15  1  0
 15 16  1  0
 16 17  2  0
 17 18  1  0
 18 19  2  0
 19 20  1  0
 20 21  1  0
 21 22  1  0
 22 23  1  0
 23 24  1  0
 24 25  1  0
 25 26  1  6
 17 27  1  0
 27 28  1  0
 28 29  1  0
 29 30  1  0
 30 31  1  0
 31 32  1  0
 32 33  1  1
 15 34  2  0
 10  5  1  0
 34 11  1  0
 19 14  1  0
 25 20  1  0
 32 27  1  0
M  END
$$$$
