
     RDKit          3D

 34 38  0  0  0  0  0  0  0  0999 V2000
  190.0751  155.5204  131.3777 C   0  0  0  0  0  0  0  0  0  0  0  0
  189.3765  155.1809  130.1309 N   0  0  0  0  0  0  0  0  0  0  0  0
  189.4192  156.0078  129.0011 C   0  0  0  0  0  0  0  0  0  0  0  0
  188.9298  157.1609  129.1076 O   0  0  0  0  0  0  0  0  0  0  0  0
  189.9988  155.5950  127.7231 C   0  0  0  0  0  0  0  0  0  0  0  0
  190.0368  156.4861  126.6660 C   0  0  0  0  0  0  0  0  0  0  0  0
  190.5612  156.1888  125.4294 C   0  0  0  0  0  0  0  0  0  0  0  0
  191.0717  154.9290  125.2541 C   0  0  0  0  0  0  0  0  0  0  0  0
  191.0614  153.9859  126.2845 C   0  0  0  0  0  0  0  0  0  0  0  0
  190.5220  154.3443  127.5009 C   0  0  0  0  0  0  0  0  0  0  0  0
  190.5654  157.1974  124.3469 C   0  0  0  0  0  0  0  0  0  0  0  0
  189.7485  158.2994  124.3406 C   0  0  0  0  0  0  0  0  0  0  0  0
  189.7378  159.2503  123.3415 C   0  0  0  0  0  0  0  0  0  0  0  0
  190.5974  159.0928  122.2798 C   0  0  0  0  0  0  0  0  0  0  0  0
  191.4158  157.9639  122.3118 C   0  0  0  0  0  0  0  0  0  0  0  0
  192.2548  157.8204  121.2514 N   0  0  0  0  0  0  0  0  0  0  0  0
  192.3141  158.6849  120.2335 C   0  0  0  0  0  0  0  0  0  0  0  0
  191.5041  159.7645  120.2435 N   0  0  0  0  0  0  0  0  0  0  0  0
  190.6362  160.0007  121.2464 C   0  0  0  0  0  0  0  0  0  0  0  0
  189.7992  161.1552  121.2550 N   0  0  0  0  0  0  0  0  0  0  0  0
  190.2131  162.4578  120.7715 C   0  0  0  0  0  0  0  0  0  0  0  0
  189.4784  163.4956  121.5609 C   0  0  0  0  0  0  0  0  0  0  0  0
  189.0874  163.1377  122.8177 O   0  0  0  0  0  0  0  0  0  0  0  0
  188.3396  162.0013  122.9415 C   0  0  0  0  0  0  0  0  0  0  0  0
  188.4304  161.1043  121.7575 C   0  0  2  0  0  0  0  0  0  0  0  0
  187.9608  159.7102  121.9995 C   0  0  0  0  0  0  0  0  0  0  0  0
  193.2232  158.4406  119.1796 N   0  0  0  0  0  0  0  0  0  0  0  0
  194.0603  157.2534  119.1199 C   0  0  0  0  0  0  0  0  0  0  0  0
  194.0253  156.7498  117.6926 C   0  0  0  0  0  0  0  0  0  0  0  0
  194.5775  157.7525  116.8897 O   0  0  0  0  0  0  0  0  0  0  0  0
  193.5928  158.7562  116.7672 C   0  0  0  0  0  0  0  0  0  0  0  0
  193.3350  159.4046  118.1091 C   0  0  2  0  0  0  0  0  0  0  0  0
  194.3688  160.4683  118.4131 C   0  0  0  0  0  0  0  0  0  0  0  0
  191.4001  157.0571  123.3015 N   0  0  0  0  0  0  0  0  0  0  0  0
  1  2  1  0
  2  3  1  0
  3  4  2  0
  3  5  1  0
  5  6  2  0
  6  7  1  0
  7  8  2  0
  8  9  1  0
  9 10  2  0
  7 11  1  0
 11 12  2  0
 12 13  1  0
 13 14  2  0
 14 15  1  0
 15 16  1  0
 16 17  2  0
 17 18  1  0
 18 19  2  0
 19 20  1  0
 20 21  1  0
 21 22  1  0
 22 23  1  0
 23 24  1  0
 24 25  1  0
 25 26  1  1
 17 27  1  0
 27 28  1  0
 28 29  1  0
 29 30  1  0
 30 31  1  0
 31 32  1  0
 32 33  1  1
 15 34  2  0
 10  5  1  0
 34 11  1  0
 19 14  1  0
 25 20  1  0
 32 27  1  0
M  END
$$$$
