
     RDKit          3D

 34 38  0  0  0  0  0  0  0  0999 V2000
  181.9542  144.7029  134.6991 C   0  0  0  0  0  0  0  0  0  0  0  0
  182.1649  144.8850  133.2568 N   0  0  0  0  0  0  0  0  0  0  0  0
  183.2518  145.6054  132.7451 C   0  0  0  0  0  0  0  0  0  0  0  0
  184.0824  146.0651  133.5693 O   0  0  0  0  0  0  0  0  0  0  0  0
  183.4595  145.8423  131.3168 C   0  0  0  0  0  0  0  0  0  0  0  0
  184.1885  146.9418  130.9015 C   0  0  0  0  0  0  0  0  0  0  0  0
  184.4357  147.2460  129.5828 C   0  0  0  0  0  0  0  0  0  0  0  0
  183.9202  146.3965  128.6389 C   0  0  0  0  0  0  0  0  0  0  0  0
  183.1759  145.2701  128.9973 C   0  0  0  0  0  0  0  0  0  0  0  0
  182.9626  145.0193  130.3355 C   0  0  0  0  0  0  0  0  0  0  0  0
  185.2255  148.4425  129.2174 C   0  0  0  0  0  0  0  0  0  0  0  0
  186.2464  148.9361  129.9894 C   0  0  0  0  0  0  0  0  0  0  0  0
  186.9940  150.0492  129.6660 C   0  0  0  0  0  0  0  0  0  0  0  0
  186.7055  150.7134  128.4970 C   0  0  0  0  0  0  0  0  0  0  0  0
  185.6632  150.1904  127.7321 C   0  0  0  0  0  0  0  0  0  0  0  0
  185.3873  150.8629  126.5830 N   0  0  0  0  0  0  0  0  0  0  0  0
  186.0517  151.9531  126.1869 C   0  0  0  0  0  0  0  0  0  0  0  0
  187.0541  152.4251  126.9579 N   0  0  0  0  0  0  0  0  0  0  0  0
  187.4082  151.8333  128.1153 C   0  0  0  0  0  0  0  0  0  0  0  0
  188.4818  152.3302  128.9114 N   0  0  0  0  0  0  0  0  0  0  0  0
  188.6432  153.7252  129.2720 C   0  0  0  0  0  0  0  0  0  0  0  0
  190.1082  153.9970  129.4124 C   0  0  0  0  0  0  0  0  0  0  0  0
  190.9451  153.2022  128.6854 O   0  0  0  0  0  0  0  0  0  0  0  0
  190.8176  151.8510  128.8401 C   0  0  0  0  0  0  0  0  0  0  0  0
  189.5164  151.4465  129.4383 C   0  0  2  0  0  0  0  0  0  0  0  0
  189.1785  150.0045  129.2686 C   0  0  0  0  0  0  0  0  0  0  0  0
  185.6832  152.5767  124.9735 N   0  0  0  0  0  0  0  0  0  0  0  0
  184.6472  152.0505  124.0998 C   0  0  0  0  0  0  0  0  0  0  0  0
  183.8057  153.2231  123.6431 C   0  0  0  0  0  0  0  0  0  0  0  0
  184.6451  154.0721  122.9151 O   0  0  0  0  0  0  0  0  0  0  0  0
  185.4393  154.7573  123.8594 C   0  0  0  0  0  0  0  0  0  0  0  0
  186.3576  153.7901  124.5728 C   0  0  2  0  0  0  0  0  0  0  0  0
  187.5971  153.5023  123.7522 C   0  0  0  0  0  0  0  0  0  0  0  0
  184.9552  149.1033  128.0774 N   0  0  0  0  0  0  0  0  0  0  0  0
  1  2  1  0
  2  3  1  0
  3  4  2  0
  3  5  1  0
  5  6  2  0
  6  7  1  0
  7  8  2  0
  8  9  1  0
  9 10  2  0
  7 11  1  0
 11 12  2  0
 12 13  1  0
 13 14  2  0
 14 15  1  0
 15 16  1  0
 16 17  2  0
 17 18  1  0
 18 19  2  0
 19 20  1  0
 20 21  1  0
 21 22  1  0
 22 23  1  0
 23 24  1  0
 24 25  1  0
 25 26  1  6
 17 27  1  0
 27 28  1  0
 28 29  1  0
 29 30  1  0
 30 31  1  0
 31 32  1  0
 32 33  1  6
 15 34  2  0
 10  5  1  0
 34 11  1  0
 19 14  1  0
 25 20  1  0
 32 27  1  0
M  END
$$$$
