
     RDKit          3D

 34 38  0  0  0  0  0  0  0  0999 V2000
  140.8215  157.6266  158.6649 C   0  0  0  0  0  0  0  0  0  0  0  0
  141.0099  158.6338  157.6123 N   0  0  0  0  0  0  0  0  0  0  0  0
  140.0214  159.5727  157.2906 C   0  0  0  0  0  0  0  0  0  0  0  0
  140.3618  160.5528  156.5805 O   0  0  0  0  0  0  0  0  0  0  0  0
  138.6329  159.4646  157.7374 C   0  0  0  0  0  0  0  0  0  0  0  0
  137.6292  160.0886  157.0190 C   0  0  0  0  0  0  0  0  0  0  0  0
  136.2975  160.0432  157.3611 C   0  0  0  0  0  0  0  0  0  0  0  0
  135.9656  159.3319  158.4846 C   0  0  0  0  0  0  0  0  0  0  0  0
  136.9350  158.6805  159.2508 C   0  0  0  0  0  0  0  0  0  0  0  0
  138.2527  158.7634  158.8559 C   0  0  0  0  0  0  0  0  0  0  0  0
  135.2812  160.7379  156.5405 C   0  0  0  0  0  0  0  0  0  0  0  0
  133.9332  160.5155  156.6633 C   0  0  0  0  0  0  0  0  0  0  0  0
  132.9708  161.1528  155.9083 C   0  0  0  0  0  0  0  0  0  0  0  0
  133.3784  162.0718  154.9701 C   0  0  0  0  0  0  0  0  0  0  0  0
  134.7538  162.2779  154.8664 C   0  0  0  0  0  0  0  0  0  0  0  0
  135.1396  163.1850  153.9297 N   0  0  0  0  0  0  0  0  0  0  0  0
  134.2833  163.8493  153.1473 C   0  0  0  0  0  0  0  0  0  0  0  0
  132.9600  163.6192  153.2818 N   0  0  0  0  0  0  0  0  0  0  0  0
  132.4724  162.7410  154.1795 C   0  0  0  0  0  0  0  0  0  0  0  0
  131.0711  162.5209  154.3253 N   0  0  0  0  0  0  0  0  0  0  0  0
  130.2680  161.7681  153.3818 C   0  0  0  0  0  0  0  0  0  0  0  0
  128.8828  162.3342  153.4032 C   0  0  0  0  0  0  0  0  0  0  0  0
  128.7683  163.6444  153.7649 O   0  0  0  0  0  0  0  0  0  0  0  0
  129.3228  164.0162  154.9567 C   0  0  0  0  0  0  0  0  0  0  0  0
  130.3289  163.0454  155.4668 C   0  0  2  0  0  0  0  0  0  0  0  0
  131.2222  163.5822  156.5328 C   0  0  0  0  0  0  0  0  0  0  0  0
  134.7909  164.7714  152.2044 N   0  0  0  0  0  0  0  0  0  0  0  0
  136.1355  165.3186  152.2822 C   0  0  0  0  0  0  0  0  0  0  0  0
  136.7101  165.3005  150.8817 C   0  0  0  0  0  0  0  0  0  0  0  0
  135.9091  166.1370  150.0983 O   0  0  0  0  0  0  0  0  0  0  0  0
  134.7221  165.4215  149.8320 C   0  0  0  0  0  0  0  0  0  0  0  0
  133.9471  165.1965  151.1112 C   0  0  2  0  0  0  0  0  0  0  0  0
  133.1219  166.4127  151.4750 C   0  0  0  0  0  0  0  0  0  0  0  0
  135.6641  161.6392  155.6184 N   0  0  0  0  0  0  0  0  0  0  0  0
  1  2  1  0
  2  3  1  0
  3  4  2  0
  3  5  1  0
  5  6  2  0
  6  7  1  0
  7  8  2  0
  8  9  1  0
  9 10  2  0
  7 11  1  0
 11 12  2  0
 12 13  1  0
 13 14  2  0
 14 15  1  0
 15 16  1  0
 16 17  2  0
 17 18  1  0
 18 19  2  0
 19 20  1  0
 20 21  1  0
 21 22  1  0
 22 23  1  0
 23 24  1  0
 24 25  1  0
 25 26  1  1
 17 27  1  0
 27 28  1  0
 28 29  1  0
 29 30  1  0
 30 31  1  0
 31 32  1  0
 32 33  1  1
 15 34  2  0
 10  5  1  0
 34 11  1  0
 19 14  1  0
 25 20  1  0
 32 27  1  0
M  END
$$$$
