
     RDKit          3D

 34 38  0  0  0  0  0  0  0  0999 V2000
  132.8050  140.2430  126.5220 C   0  0  0  0  0  0  0  0  0  0  0  0
  132.5507  139.9562  127.9401 N   0  0  0  0  0  0  0  0  0  0  0  0
  131.9414  140.8854  128.7931 C   0  0  0  0  0  0  0  0  0  0  0  0
  131.7107  142.0318  128.3317 O   0  0  0  0  0  0  0  0  0  0  0  0
  131.5680  140.5849  130.1751 C   0  0  0  0  0  0  0  0  0  0  0  0
  130.9461  141.5515  130.9444 C   0  0  0  0  0  0  0  0  0  0  0  0
  130.5587  141.3616  132.2507 C   0  0  0  0  0  0  0  0  0  0  0  0
  130.8130  140.1342  132.8051 C   0  0  0  0  0  0  0  0  0  0  0  0
  131.4381  139.1185  132.0779 C   0  0  0  0  0  0  0  0  0  0  0  0
  131.8024  139.3705  130.7729 C   0  0  0  0  0  0  0  0  0  0  0  0
  129.8977  142.4462  133.0094 C   0  0  0  0  0  0  0  0  0  0  0  0
  129.7158  143.7114  132.5115 C   0  0  0  0  0  0  0  0  0  0  0  0
  129.1023  144.7353  133.2026 C   0  0  0  0  0  0  0  0  0  0  0  0
  128.6396  144.4816  134.4725 C   0  0  0  0  0  0  0  0  0  0  0  0
  128.8380  143.1876  134.9536 C   0  0  0  0  0  0  0  0  0  0  0  0
  128.3802  142.9560  136.2128 N   0  0  0  0  0  0  0  0  0  0  0  0
  127.7774  143.8840  136.9626 C   0  0  0  0  0  0  0  0  0  0  0  0
  127.6056  145.1237  136.4570 N   0  0  0  0  0  0  0  0  0  0  0  0
  128.0219  145.4579  135.2201 C   0  0  0  0  0  0  0  0  0  0  0  0
  127.8172  146.7657  134.6899 N   0  0  0  0  0  0  0  0  0  0  0  0
  127.2444  147.8636  135.4439 C   0  0  0  0  0  0  0  0  0  0  0  0
  126.5184  148.7517  134.4825 C   0  0  0  0  0  0  0  0  0  0  0  0
  126.0477  148.1602  133.3471 O   0  0  0  0  0  0  0  0  0  0  0  0
  126.9438  147.4672  132.5838 C   0  0  0  0  0  0  0  0  0  0  0  0
  128.1852  147.1017  133.3186 C   0  0  2  0  0  0  0  0  0  0  0  0
  128.9995  146.0364  132.6670 C   0  0  0  0  0  0  0  0  0  0  0  0
  127.3394  143.5374  138.2606 N   0  0  0  0  0  0  0  0  0  0  0  0
  127.3882  142.1774  138.7720 C   0  0  0  0  0  0  0  0  0  0  0  0
  127.9024  142.2499  140.1941 C   0  0  0  0  0  0  0  0  0  0  0  0
  126.9738  142.9931  140.9292 O   0  0  0  0  0  0  0  0  0  0  0  0
  127.1750  144.3455  140.5792 C   0  0  0  0  0  0  0  0  0  0  0  0
  126.8184  144.5700  139.1266 C   0  0  2  0  0  0  0  0  0  0  0  0
  125.3261  144.7555  138.9495 C   0  0  0  0  0  0  0  0  0  0  0  0
  129.4402  142.2138  134.2528 N   0  0  0  0  0  0  0  0  0  0  0  0
  1  2  1  0
  2  3  1  0
  3  4  2  0
  3  5  1  0
  5  6  2  0
  6  7  1  0
  7  8  2  0
  8  9  1  0
  9 10  2  0
  7 11  1  0
 11 12  2  0
 12 13  1  0
 13 14  2  0
 14 15  1  0
 15 16  1  0
 16 17  2  0
 17 18  1  0
 18 19  2  0
 19 20  1  0
 20 21  1  0
 21 22  1  0
 22 23  1  0
 23 24  1  0
 24 25  1  0
 25 26  1  6
 17 27  1  0
 27 28  1  0
 28 29  1  0
 29 30  1  0
 30 31  1  0
 31 32  1  0
 32 33  1  1
 15 34  2  0
 10  5  1  0
 34 11  1  0
 19 14  1  0
 25 20  1  0
 32 27  1  0
M  END
$$$$
