
     RDKit          3D

 34 38  0  0  0  0  0  0  0  0999 V2000
  154.2024  187.9703  160.5760 C   0  0  0  0  0  0  0  0  0  0  0  0
  153.9340  189.3290  161.0655 N   0  0  0  0  0  0  0  0  0  0  0  0
  154.3588  190.4705  160.3736 C   0  0  0  0  0  0  0  0  0  0  0  0
  155.0263  190.2964  159.3225 O   0  0  0  0  0  0  0  0  0  0  0  0
  154.0645  191.8341  160.8133 C   0  0  0  0  0  0  0  0  0  0  0  0
  154.8245  192.8880  160.3394 C   0  0  0  0  0  0  0  0  0  0  0  0
  154.6230  194.2014  160.6954 C   0  0  0  0  0  0  0  0  0  0  0  0
  153.6031  194.4608  161.5734 C   0  0  0  0  0  0  0  0  0  0  0  0
  152.8016  193.4381  162.0861 C   0  0  0  0  0  0  0  0  0  0  0  0
  153.0536  192.1421  161.6910 C   0  0  0  0  0  0  0  0  0  0  0  0
  155.4796  195.2748  160.1448 C   0  0  0  0  0  0  0  0  0  0  0  0
  155.1660  196.6075  160.2303 C   0  0  0  0  0  0  0  0  0  0  0  0
  155.9510  197.6222  159.7238 C   0  0  0  0  0  0  0  0  0  0  0  0
  157.1250  197.2869  159.0913 C   0  0  0  0  0  0  0  0  0  0  0  0
  157.4187  195.9255  159.0184 C   0  0  0  0  0  0  0  0  0  0  0  0
  158.5798  195.6115  158.3842 N   0  0  0  0  0  0  0  0  0  0  0  0
  159.4038  196.5224  157.8569 C   0  0  0  0  0  0  0  0  0  0  0  0
  159.0807  197.8296  157.9507 N   0  0  0  0  0  0  0  0  0  0  0  0
  157.9537  198.2479  158.5588 C   0  0  0  0  0  0  0  0  0  0  0  0
  157.6330  199.6330  158.6685 N   0  0  0  0  0  0  0  0  0  0  0  0
  158.4140  200.6945  158.0640 C   0  0  0  0  0  0  0  0  0  0  0  0
  158.2839  201.9097  158.9278 C   0  0  0  0  0  0  0  0  0  0  0  0
  158.0218  201.6902  160.2484 O   0  0  0  0  0  0  0  0  0  0  0  0
  156.9353  200.9200  160.5520 C   0  0  0  0  0  0  0  0  0  0  0  0
  156.4628  200.0912  159.4099 C   0  0  2  0  0  0  0  0  0  0  0  0
  155.5528  198.9735  159.7908 C   0  0  0  0  0  0  0  0  0  0  0  0
  160.5869  196.0875  157.2181 N   0  0  0  0  0  0  0  0  0  0  0  0
  161.0692  194.7184  157.2998 C   0  0  0  0  0  0  0  0  0  0  0  0
  161.5208  194.3172  155.9116 C   0  0  0  0  0  0  0  0  0  0  0  0
  162.5763  195.1651  155.5621 O   0  0  0  0  0  0  0  0  0  0  0  0
  161.9983  196.4085  155.2280 C   0  0  0  0  0  0  0  0  0  0  0  0
  161.3595  197.0346  156.4476 C   0  0  2  0  0  0  0  0  0  0  0  0
  162.3864  197.7508  157.2992 C   0  0  0  0  0  0  0  0  0  0  0  0
  156.6308  194.9628  159.5229 N   0  0  0  0  0  0  0  0  0  0  0  0
  1  2  1  0
  2  3  1  0
  3  4  2  0
  3  5  1  0
  5  6  2  0
  6  7  1  0
  7  8  2  0
  8  9  1  0
  9 10  2  0
  7 11  1  0
 11 12  2  0
 12 13  1  0
 13 14  2  0
 14 15  1  0
 15 16  1  0
 16 17  2  0
 17 18  1  0
 18 19  2  0
 19 20  1  0
 20 21  1  0
 21 22  1  0
 22 23  1  0
 23 24  1  0
 24 25  1  0
 25 26  1  1
 17 27  1  0
 27 28  1  0
 28 29  1  0
 29 30  1  0
 30 31  1  0
 31 32  1  0
 32 33  1  1
 15 34  2  0
 10  5  1  0
 34 11  1  0
 19 14  1  0
 25 20  1  0
 32 27  1  0
M  END
$$$$
