
     RDKit          3D

 34 38  0  0  0  0  0  0  0  0999 V2000
  195.5246  132.1343  134.5950 C   0  0  0  0  0  0  0  0  0  0  0  0
  196.6387  132.8009  135.2822 N   0  0  0  0  0  0  0  0  0  0  0  0
  197.9458  132.2985  135.2485 C   0  0  0  0  0  0  0  0  0  0  0  0
  198.1690  131.3127  134.5009 O   0  0  0  0  0  0  0  0  0  0  0  0
  199.0449  132.8617  136.0324 C   0  0  0  0  0  0  0  0  0  0  0  0
  200.3531  132.5796  135.6831 C   0  0  0  0  0  0  0  0  0  0  0  0
  201.4497  133.0625  136.3589 C   0  0  0  0  0  0  0  0  0  0  0  0
  201.2109  133.8699  137.4403 C   0  0  0  0  0  0  0  0  0  0  0  0
  199.9117  134.1901  137.8412 C   0  0  0  0  0  0  0  0  0  0  0  0
  198.8543  133.6750  137.1229 C   0  0  0  0  0  0  0  0  0  0  0  0
  202.8203  132.7151  135.9235 C   0  0  0  0  0  0  0  0  0  0  0  0
  203.1548  131.4975  135.3875 C   0  0  0  0  0  0  0  0  0  0  0  0
  204.4258  131.1549  134.9758 C   0  0  0  0  0  0  0  0  0  0  0  0
  205.4287  132.0866  135.1064 C   0  0  0  0  0  0  0  0  0  0  0  0
  205.0609  133.3152  135.6544 C   0  0  0  0  0  0  0  0  0  0  0  0
  206.0658  134.2222  135.7822 N   0  0  0  0  0  0  0  0  0  0  0  0
  207.3290  133.9822  135.4168 C   0  0  0  0  0  0  0  0  0  0  0  0
  207.6409  132.7791  134.8903 N   0  0  0  0  0  0  0  0  0  0  0  0
  206.7204  131.8103  134.7203 C   0  0  0  0  0  0  0  0  0  0  0  0
  207.0583  130.5501  134.1449 N   0  0  0  0  0  0  0  0  0  0  0  0
  208.1986  129.7538  134.5543 C   0  0  0  0  0  0  0  0  0  0  0  0
  208.6702  128.9801  133.3631 C   0  0  0  0  0  0  0  0  0  0  0  0
  208.4070  129.5269  132.1415 O   0  0  0  0  0  0  0  0  0  0  0  0
  207.1083  129.8483  131.8655 C   0  0  0  0  0  0  0  0  0  0  0  0
  206.2565  129.9549  133.0811 C   0  0  2  0  0  0  0  0  0  0  0  0
  204.9642  130.6679  132.8710 C   0  0  0  0  0  0  0  0  0  0  0  0
  208.2976  134.9960  135.5937 N   0  0  0  0  0  0  0  0  0  0  0  0
  209.7195  134.7716  135.3907 C   0  0  0  0  0  0  0  0  0  0  0  0
  210.2585  135.9635  134.6285 C   0  0  0  0  0  0  0  0  0  0  0  0
  210.0733  137.0874  135.4394 O   0  0  0  0  0  0  0  0  0  0  0  0
  208.7019  137.4128  135.3669 C   0  0  0  0  0  0  0  0  0  0  0  0
  207.8689  136.3167  135.9933 C   0  0  2  0  0  0  0  0  0  0  0  0
  207.8144  136.4607  137.4996 C   0  0  0  0  0  0  0  0  0  0  0  0
  203.8122  133.6155  136.0452 N   0  0  0  0  0  0  0  0  0  0  0  0
  1  2  1  0
  2  3  1  0
  3  4  2  0
  3  5  1  0
  5  6  2  0
  6  7  1  0
  7  8  2  0
  8  9  1  0
  9 10  2  0
  7 11  1  0
 11 12  2  0
 12 13  1  0
 13 14  2  0
 14 15  1  0
 15 16  1  0
 16 17  2  0
 17 18  1  0
 18 19  2  0
 19 20  1  0
 20 21  1  0
 21 22  1  0
 22 23  1  0
 23 24  1  0
 24 25  1  0
 25 26  1  6
 17 27  1  0
 27 28  1  0
 28 29  1  0
 29 30  1  0
 30 31  1  0
 31 32  1  0
 32 33  1  1
 15 34  2  0
 10  5  1  0
 34 11  1  0
 19 14  1  0
 25 20  1  0
 32 27  1  0
M  END
$$$$
