
     RDKit          3D

 44 50  0  0  0  0  0  0  0  0999 V2000
  204.8610  129.0344  138.7013 N   0  0  0  0  0  0  0  0  0  0  0  0
  205.0931  130.3526  138.2218 C   0  0  0  0  0  0  0  0  0  0  0  0
  206.1595  131.0614  138.6543 N   0  0  0  0  0  0  0  0  0  0  0  0
  206.3886  132.3214  138.2012 C   0  0  0  0  0  0  0  0  0  0  0  0
  205.5724  132.9111  137.3122 N   0  0  0  0  0  0  0  0  0  0  0  0
  204.4884  132.2423  136.8472 C   0  0  0  0  0  0  0  0  0  0  0  0
  204.2602  130.9733  137.3052 C   0  0  0  0  0  0  0  0  0  0  0  0
  203.1507  130.5455  136.7027 N   0  0  0  0  0  0  0  0  0  0  0  0
  202.7013  131.5207  135.8926 C   0  0  0  0  0  0  0  0  0  0  0  0
  203.5054  132.5699  135.9650 N   0  0  0  0  0  0  0  0  0  0  0  0
  203.4664  133.8503  135.3054 C   0  0  2  0  0  0  0  0  0  0  0  0
  202.4922  133.9103  134.3040 O   0  0  0  0  0  0  0  0  0  0  0  0
  202.7547  135.1270  133.6981 C   0  0  2  0  0  0  0  0  0  0  0  0
  202.0905  135.1665  132.3606 C   0  0  0  0  0  0  0  0  0  0  0  0
  200.9477  135.9841  132.4539 O   0  0  0  0  0  0  0  0  0  0  0  0
  200.6993  136.8741  131.0611 P   0  0  2  0  0  5  0  0  0  0  0  0
  198.9969  136.1641  130.0423 S   0  0  0  0  0  0  0  0  0  0  0  0
  201.8977  136.6644  130.1550 O   0  0  0  0  0  0  0  0  0  0  0  0
  200.4717  138.5282  131.3836 O   0  0  0  0  0  0  0  0  0  0  0  0
  201.6985  139.1254  131.4260 C   0  0  2  0  0  0  0  0  0  0  0  0
  202.3685  139.0027  132.8023 C   0  0  2  0  0  0  0  0  0  0  0  0
  201.4161  139.3009  133.7677 O   0  0  0  0  0  0  0  0  0  0  0  0
  203.3523  140.1487  132.7013 C   0  0  1  0  0  0  0  0  0  0  0  0
  204.6582  139.5512  132.1617 C   0  0  0  0  0  0  0  0  0  0  0  0
  204.6161  138.1674  132.1415 O   0  0  0  0  0  0  0  0  0  0  0  0
  205.5492  137.4809  133.3821 P   0  0  2  0  0  5  0  0  0  0  0  0
  206.2455  139.0487  134.6227 S   0  0  0  0  0  0  0  0  0  0  0  0
  206.7315  136.8110  132.7184 O   0  0  0  0  0  0  0  0  0  0  0  0
  204.6637  136.4233  134.3330 O   0  0  0  0  0  0  0  0  0  0  0  0
  204.2533  135.2851  133.6332 C   0  0  1  0  0  0  0  0  0  0  0  0
  204.7288  134.0922  134.4677 C   0  0  1  0  0  0  0  0  0  0  0  0
  205.7975  134.4401  135.2749 O   0  0  0  0  0  0  0  0  0  0  0  0
  202.8850  141.0310  131.7695 O   0  0  0  0  0  0  0  0  0  0  0  0
  201.6498  140.6366  131.3327 C   0  0  1  0  0  0  0  0  0  0  0  0
  201.3582  141.0666  129.9820 N   0  0  0  0  0  0  0  0  0  0  0  0
  200.4807  140.4965  129.1297 C   0  0  0  0  0  0  0  0  0  0  0  0
  200.4653  141.1574  127.9581 N   0  0  0  0  0  0  0  0  0  0  0  0
  201.3429  142.1759  128.0376 C   0  0  0  0  0  0  0  0  0  0  0  0
  201.8891  142.1046  129.3029 C   0  0  0  0  0  0  0  0  0  0  0  0
  202.8216  143.0374  129.6448 N   0  0  0  0  0  0  0  0  0  0  0  0
  203.1682  143.9761  128.7514 C   0  0  0  0  0  0  0  0  0  0  0  0
  202.6275  144.0361  127.5173 N   0  0  0  0  0  0  0  0  0  0  0  0
  201.7024  143.1463  127.1166 C   0  0  0  0  0  0  0  0  0  0  0  0
  201.1289  143.2051  125.8160 N   0  0  0  0  0  0  0  0  0  0  0  0
  1  2  1  0
  2  3  2  0
  3  4  1  0
  4  5  2  0
  5  6  1  0
  6  7  2  0
  7  8  1  0
  8  9  2  0
  9 10  1  0
 11 10  1  6
 11 12  1  0
 12 13  1  0
 13 14  1  6
 14 15  1  0
 15 16  1  0
 16 17  1  6
 16 18  2  0
 16 19  1  0
 20 19  1  1
 20 21  1  0
 21 22  1  1
 21 23  1  0
 23 24  1  6
 24 25  1  0
 25 26  1  0
 26 27  1  1
 26 28  2  0
 26 29  1  0
 30 29  1  1
 30 31  1  0
 31 32  1  1
 23 33  1  0
 33 34  1  0
 34 35  1  6
 35 36  1  0
 36 37  2  0
 37 38  1  0
 38 39  2  0
 39 40  1  0
 40 41  2  0
 41 42  1  0
 42 43  2  0
 43 44  1  0
  7  2  1  0
 31 11  1  0
 39 35  1  0
 10  6  1  0
 30 13  1  0
 43 38  1  0
 34 20  1  0
M  END
$$$$
