
     RDKit          3D

 44 50  0  0  0  0  0  0  0  0999 V2000
  134.7791  136.2723  131.1854 N   0  0  0  0  0  0  0  0  0  0  0  0
  133.6398  137.0992  130.9869 C   0  0  0  0  0  0  0  0  0  0  0  0
  132.8183  136.8931  129.9336 N   0  0  0  0  0  0  0  0  0  0  0  0
  131.7276  137.6786  129.7366 C   0  0  0  0  0  0  0  0  0  0  0  0
  131.4219  138.6844  130.5726 N   0  0  0  0  0  0  0  0  0  0  0  0
  132.2142  138.9327  131.6447 C   0  0  0  0  0  0  0  0  0  0  0  0
  133.3122  138.1399  131.8406 C   0  0  0  0  0  0  0  0  0  0  0  0
  133.9112  138.5864  132.9446 N   0  0  0  0  0  0  0  0  0  0  0  0
  133.2061  139.6275  133.4221 C   0  0  0  0  0  0  0  0  0  0  0  0
  132.1619  139.8576  132.6415 N   0  0  0  0  0  0  0  0  0  0  0  0
  131.1139  140.8436  132.7145 C   0  0  2  0  0  0  0  0  0  0  0  0
  131.5491  142.0516  133.2687 O   0  0  0  0  0  0  0  0  0  0  0  0
  130.3697  142.7623  133.4109 C   0  0  2  0  0  0  0  0  0  0  0  0
  130.5868  143.8951  134.3604 C   0  0  0  0  0  0  0  0  0  0  0  0
  130.6754  145.0886  133.6182 O   0  0  0  0  0  0  0  0  0  0  0  0
  129.9692  146.3760  134.4166 P   0  0  2  0  0  5  0  0  0  0  0  0
  131.4505  147.7299  135.0592 S   0  0  0  0  0  0  0  0  0  0  0  0
  129.2754  145.8337  135.6518 O   0  0  0  0  0  0  0  0  0  0  0  0
  128.8701  147.2219  133.4325 O   0  0  0  0  0  0  0  0  0  0  0  0
  127.6511  146.6169  133.5399 C   0  0  2  0  0  0  0  0  0  0  0  0
  127.4996  145.4196  132.5903 C   0  0  2  0  0  0  0  0  0  0  0  0
  127.9794  145.8009  131.3443 O   0  0  0  0  0  0  0  0  0  0  0  0
  125.9891  145.3348  132.5387 C   0  0  1  0  0  0  0  0  0  0  0  0
  125.5739  144.3457  133.6355 C   0  0  0  0  0  0  0  0  0  0  0  0
  126.6685  143.6879  134.1703 O   0  0  0  0  0  0  0  0  0  0  0  0
  126.7731  142.0805  133.6350 P   0  0  2  0  0  5  0  0  0  0  0  0
  125.2801  141.7809  132.1642 S   0  0  0  0  0  0  0  0  0  0  0  0
  126.4755  141.2029  134.8302 O   0  0  0  0  0  0  0  0  0  0  0  0
  128.2589  141.7366  132.9414 O   0  0  0  0  0  0  0  0  0  0  0  0
  129.3084  141.7904  133.8629 C   0  0  1  0  0  0  0  0  0  0  0  0
  130.0393  140.4504  133.7366 C   0  0  1  0  0  0  0  0  0  0  0  0
  129.2057  139.4718  133.2243 O   0  0  0  0  0  0  0  0  0  0  0  0
  125.4816  146.5583  132.8714 O   0  0  0  0  0  0  0  0  0  0  0  0
  126.5002  147.4583  133.0276 C   0  0  1  0  0  0  0  0  0  0  0  0
  126.1821  148.5251  133.9524 N   0  0  0  0  0  0  0  0  0  0  0  0
  126.0704  148.4186  135.2932 C   0  0  0  0  0  0  0  0  0  0  0  0
  125.7639  149.6107  135.8360 N   0  0  0  0  0  0  0  0  0  0  0  0
  125.6722  150.5150  134.8421 C   0  0  0  0  0  0  0  0  0  0  0  0
  125.9352  149.8227  133.6777 C   0  0  0  0  0  0  0  0  0  0  0  0
  125.9055  150.5177  132.5060 N   0  0  0  0  0  0  0  0  0  0  0  0
  125.6258  151.8294  132.5287 C   0  0  0  0  0  0  0  0  0  0  0  0
  125.3703  152.4958  133.6732 N   0  0  0  0  0  0  0  0  0  0  0  0
  125.3836  151.8697  134.8631 C   0  0  0  0  0  0  0  0  0  0  0  0
  125.1148  152.5679  136.0732 N   0  0  0  0  0  0  0  0  0  0  0  0
  1  2  1  0
  2  3  2  0
  3  4  1  0
  4  5  2  0
  5  6  1  0
  6  7  2  0
  7  8  1  0
  8  9  2  0
  9 10  1  0
 11 10  1  1
 11 12  1  0
 12 13  1  0
 13 14  1  1
 14 15  1  0
 15 16  1  0
 16 17  1  1
 16 18  2  0
 16 19  1  0
 20 19  1  6
 20 21  1  0
 21 22  1  6
 21 23  1  0
 23 24  1  1
 24 25  1  0
 25 26  1  0
 26 27  1  6
 26 28  2  0
 26 29  1  0
 30 29  1  6
 30 31  1  0
 31 32  1  6
 23 33  1  0
 33 34  1  0
 34 35  1  1
 35 36  1  0
 36 37  2  0
 37 38  1  0
 38 39  2  0
 39 40  1  0
 40 41  2  0
 41 42  1  0
 42 43  2  0
 43 44  1  0
  7  2  1  0
 31 11  1  0
 39 35  1  0
 10  6  1  0
 30 13  1  0
 43 38  1  0
 34 20  1  0
M  END
$$$$
