
     RDKit          3D

 44 50  0  0  0  0  0  0  0  0999 V2000
  162.7340  158.4465  127.1513 N   0  0  0  0  0  0  0  0  0  0  0  0
  162.7543  157.0341  126.9900 C   0  0  0  0  0  0  0  0  0  0  0  0
  161.6030  156.3471  126.8193 N   0  0  0  0  0  0  0  0  0  0  0  0
  161.6135  154.9975  126.6644 C   0  0  0  0  0  0  0  0  0  0  0  0
  162.7582  154.2948  126.6742 N   0  0  0  0  0  0  0  0  0  0  0  0
  163.9405  154.9371  126.8421 C   0  0  0  0  0  0  0  0  0  0  0  0
  163.9269  156.2964  126.9979 C   0  0  0  0  0  0  0  0  0  0  0  0
  165.1968  156.6752  127.1425 N   0  0  0  0  0  0  0  0  0  0  0  0
  165.9786  155.5826  127.0784 C   0  0  0  0  0  0  0  0  0  0  0  0
  165.2302  154.5060  126.8948 N   0  0  0  0  0  0  0  0  0  0  0  0
  165.5764  153.1137  126.7616 C   0  0  2  0  0  0  0  0  0  0  0  0
  166.8722  152.8363  127.2082 O   0  0  0  0  0  0  0  0  0  0  0  0
  167.0504  151.5189  126.8220 C   0  0  2  0  0  0  0  0  0  0  0  0
  168.5077  151.1906  126.8432 C   0  0  0  0  0  0  0  0  0  0  0  0
  168.7721  150.4076  127.9834 O   0  0  0  0  0  0  0  0  0  0  0  0
  169.9287  149.2384  127.6854 P   0  0  2  0  0  5  0  0  0  0  0  0
  171.7111  149.7064  128.7074 S   0  0  0  0  0  0  0  0  0  0  0  0
  170.2336  149.2534  126.1995 O   0  0  0  0  0  0  0  0  0  0  0  0
  169.4254  147.6911  128.1802 O   0  0  0  0  0  0  0  0  0  0  0  0
  168.7302  147.1218  127.1525 C   0  0  2  0  0  0  0  0  0  0  0  0
  167.2526  147.5398  127.1352 C   0  0  2  0  0  0  0  0  0  0  0  0
  166.7701  147.4520  128.4342 O   0  0  0  0  0  0  0  0  0  0  0  0
  166.6838  146.4027  126.3137 C   0  0  1  0  0  0  0  0  0  0  0  0
  166.6956  146.8756  124.8543 C   0  0  0  0  0  0  0  0  0  0  0  0
  167.0006  148.2226  124.7569 O   0  0  0  0  0  0  0  0  0  0  0  0
  165.6352  149.1631  124.3934 P   0  0  2  0  0  5  0  0  0  0  0  0
  163.9364  147.9010  124.4484 S   0  0  0  0  0  0  0  0  0  0  0  0
  165.8243  149.6797  122.9847 O   0  0  0  0  0  0  0  0  0  0  0  0
  165.3992  150.3967  125.5022 O   0  0  0  0  0  0  0  0  0  0  0  0
  166.4145  151.3565  125.4639 C   0  0  1  0  0  0  0  0  0  0  0  0
  165.7053  152.7027  125.2891 C   0  0  1  0  0  0  0  0  0  0  0  0
  164.4585  152.5404  124.7111 O   0  0  0  0  0  0  0  0  0  0  0  0
  167.5350  145.3391  126.4107 O   0  0  0  0  0  0  0  0  0  0  0  0
  168.5399  145.6257  127.2940 C   0  0  1  0  0  0  0  0  0  0  0  0
  169.7682  144.9146  127.0109 N   0  0  0  0  0  0  0  0  0  0  0  0
  170.4958  144.9890  125.8766 C   0  0  0  0  0  0  0  0  0  0  0  0
  171.5773  144.1932  125.9582 N   0  0  0  0  0  0  0  0  0  0  0  0
  171.5638  143.5862  127.1604 C   0  0  0  0  0  0  0  0  0  0  0  0
  170.4320  144.0463  127.8019 C   0  0  0  0  0  0  0  0  0  0  0  0
  170.1796  143.5788  129.0567 N   0  0  0  0  0  0  0  0  0  0  0  0
  171.0288  142.7018  129.6126 C   0  0  0  0  0  0  0  0  0  0  0  0
  172.1324  142.2589  128.9760 N   0  0  0  0  0  0  0  0  0  0  0  0
  172.4394  142.6804  127.7366 C   0  0  0  0  0  0  0  0  0  0  0  0
  173.6021  142.2165  127.0606 N   0  0  0  0  0  0  0  0  0  0  0  0
  1  2  1  0
  2  3  2  0
  3  4  1  0
  4  5  2  0
  5  6  1  0
  6  7  2  0
  7  8  1  0
  8  9  2  0
  9 10  1  0
 11 10  1  6
 11 12  1  0
 12 13  1  0
 13 14  1  6
 14 15  1  0
 15 16  1  0
 16 17  1  1
 16 18  2  0
 16 19  1  0
 20 19  1  1
 20 21  1  0
 21 22  1  1
 21 23  1  0
 23 24  1  6
 24 25  1  0
 25 26  1  0
 26 27  1  6
 26 28  2  0
 26 29  1  0
 30 29  1  1
 30 31  1  0
 31 32  1  1
 23 33  1  0
 33 34  1  0
 34 35  1  6
 35 36  1  0
 36 37  2  0
 37 38  1  0
 38 39  2  0
 39 40  1  0
 40 41  2  0
 41 42  1  0
 42 43  2  0
 43 44  1  0
  7  2  1  0
 31 11  1  0
 39 35  1  0
 10  6  1  0
 30 13  1  0
 43 38  1  0
 34 20  1  0
M  END
$$$$
