
     RDKit          3D

 44 50  0  0  0  0  0  0  0  0999 V2000
  203.1140  130.2330  134.7686 N   0  0  0  0  0  0  0  0  0  0  0  0
  203.6069  131.5421  134.5148 C   0  0  0  0  0  0  0  0  0  0  0  0
  204.8870  131.8614  134.8085 N   0  0  0  0  0  0  0  0  0  0  0  0
  205.3661  133.1099  134.5693 C   0  0  0  0  0  0  0  0  0  0  0  0
  204.5950  134.0714  134.0354 N   0  0  0  0  0  0  0  0  0  0  0  0
  203.3033  133.8019  133.7227 C   0  0  0  0  0  0  0  0  0  0  0  0
  202.8235  132.5436  133.9649 C   0  0  0  0  0  0  0  0  0  0  0  0
  201.5488  132.5412  133.5748 N   0  0  0  0  0  0  0  0  0  0  0  0
  201.2440  133.7635  133.1032 C   0  0  0  0  0  0  0  0  0  0  0  0
  202.3041  134.5525  133.1842 N   0  0  0  0  0  0  0  0  0  0  0  0
  202.4979  135.9322  132.8169 C   0  0  2  0  0  0  0  0  0  0  0  0
  201.6797  136.3260  131.7534 O   0  0  0  0  0  0  0  0  0  0  0  0
  202.1559  137.5915  131.4569 C   0  0  2  0  0  0  0  0  0  0  0  0
  201.6857  137.9902  130.0961 C   0  0  0  0  0  0  0  0  0  0  0  0
  200.6398  138.9220  130.2407 O   0  0  0  0  0  0  0  0  0  0  0  0
  200.6820  140.0993  129.0550 P   0  0  2  0  0  5  0  0  0  0  0  0
  199.0626  139.8503  127.7299 S   0  0  0  0  0  0  0  0  0  0  0  0
  201.9598  139.9127  128.2591 O   0  0  0  0  0  0  0  0  0  0  0  0
  200.6004  141.6702  129.7013 O   0  0  0  0  0  0  0  0  0  0  0  0
  201.8697  142.0716  130.0035 C   0  0  2  0  0  0  0  0  0  0  0  0
  202.3310  141.5836  131.3845 C   0  0  2  0  0  0  0  0  0  0  0  0
  201.2973  141.8102  132.2835 O   0  0  0  0  0  0  0  0  0  0  0  0
  203.4419  142.5796  131.6401 C   0  0  1  0  0  0  0  0  0  0  0  0
  204.7329  141.9284  131.1275 C   0  0  0  0  0  0  0  0  0  0  0  0
  204.5388  140.5962  130.8041 O   0  0  0  0  0  0  0  0  0  0  0  0
  205.2141  139.5524  131.9598 P   0  0  2  0  0  5  0  0  0  0  0  0
  205.9094  140.7276  133.5776 S   0  0  0  0  0  0  0  0  0  0  0  0
  206.3919  138.8729  131.2978 O   0  0  0  0  0  0  0  0  0  0  0  0
  204.0960  138.4577  132.5585 O   0  0  0  0  0  0  0  0  0  0  0  0
  203.6580  137.5512  131.5891 C   0  0  1  0  0  0  0  0  0  0  0  0
  203.8803  136.1609  132.1919 C   0  0  1  0  0  0  0  0  0  0  0  0
  204.8634  136.1887  133.1654 O   0  0  0  0  0  0  0  0  0  0  0  0
  203.2057  143.6870  130.8765 O   0  0  0  0  0  0  0  0  0  0  0  0
  202.0038  143.5627  130.2347 C   0  0  1  0  0  0  0  0  0  0  0  0
  201.9462  144.2913  128.9855 N   0  0  0  0  0  0  0  0  0  0  0  0
  202.2304  143.8056  127.7589 C   0  0  0  0  0  0  0  0  0  0  0  0
  202.0707  144.7612  126.8256 N   0  0  0  0  0  0  0  0  0  0  0  0
  201.6763  145.8912  127.4432 C   0  0  0  0  0  0  0  0  0  0  0  0
  201.6040  145.5810  128.7859 C   0  0  0  0  0  0  0  0  0  0  0  0
  201.2216  146.5671  129.6451 N   0  0  0  0  0  0  0  0  0  0  0  0
  200.9342  147.7842  129.1601 C   0  0  0  0  0  0  0  0  0  0  0  0
  201.0083  148.0760  127.8453 N   0  0  0  0  0  0  0  0  0  0  0  0
  201.3789  147.1490  126.9446 C   0  0  0  0  0  0  0  0  0  0  0  0
  201.4587  147.4515  125.5568 N   0  0  0  0  0  0  0  0  0  0  0  0
  1  2  1  0
  2  3  2  0
  3  4  1  0
  4  5  2  0
  5  6  1  0
  6  7  2  0
  7  8  1  0
  8  9  2  0
  9 10  1  0
 11 10  1  6
 11 12  1  0
 12 13  1  0
 13 14  1  6
 14 15  1  0
 15 16  1  0
 16 17  1  6
 16 18  2  0
 16 19  1  0
 20 19  1  1
 20 21  1  0
 21 22  1  1
 21 23  1  0
 23 24  1  6
 24 25  1  0
 25 26  1  0
 26 27  1  1
 26 28  2  0
 26 29  1  0
 30 29  1  1
 30 31  1  0
 31 32  1  1
 23 33  1  0
 33 34  1  0
 34 35  1  6
 35 36  1  0
 36 37  2  0
 37 38  1  0
 38 39  2  0
 39 40  1  0
 40 41  2  0
 41 42  1  0
 42 43  2  0
 43 44  1  0
  7  2  1  0
 31 11  1  0
 39 35  1  0
 10  6  1  0
 30 13  1  0
 43 38  1  0
 34 20  1  0
M  END
$$$$
