
     RDKit          3D

 44 50  0  0  0  0  0  0  0  0999 V2000
  212.3544  134.8048  137.3278 N   0  0  0  0  0  0  0  0  0  0  0  0
  211.1930  135.4267  136.7931 C   0  0  0  0  0  0  0  0  0  0  0  0
  211.0085  136.7594  136.9213 N   0  0  0  0  0  0  0  0  0  0  0  0
  209.9018  137.3616  136.4134 C   0  0  0  0  0  0  0  0  0  0  0  0
  208.9524  136.6644  135.7679 N   0  0  0  0  0  0  0  0  0  0  0  0
  209.0901  135.3244  135.6126 C   0  0  0  0  0  0  0  0  0  0  0  0
  210.2059  134.7206  136.1252 C   0  0  0  0  0  0  0  0  0  0  0  0
  210.0995  133.4223  135.8421 N   0  0  0  0  0  0  0  0  0  0  0  0
  208.9501  133.2238  135.1723 C   0  0  0  0  0  0  0  0  0  0  0  0
  208.3152  134.3755  135.0202 N   0  0  0  0  0  0  0  0  0  0  0  0
  207.0636  134.6991  134.3840 C   0  0  2  0  0  0  0  0  0  0  0  0
  206.5929  133.6671  133.5661 O   0  0  0  0  0  0  0  0  0  0  0  0
  205.5117  134.2531  132.9305 C   0  0  2  0  0  0  0  0  0  0  0  0
  205.1479  133.4449  131.7279 C   0  0  0  0  0  0  0  0  0  0  0  0
  203.9851  132.7068  132.0214 O   0  0  0  0  0  0  0  0  0  0  0  0
  202.9732  132.5801  130.6972 P   0  0  2  0  0  5  0  0  0  0  0  0
  202.9593  130.5974  129.9838 S   0  0  0  0  0  0  0  0  0  0  0  0
  203.5345  133.4604  129.5967 O   0  0  0  0  0  0  0  0  0  0  0  0
  201.3723  133.0223  131.0629 O   0  0  0  0  0  0  0  0  0  0  0  0
  201.2558  134.3722  130.8961 C   0  0  2  0  0  0  0  0  0  0  0  0
  201.7019  135.1617  132.1354 C   0  0  2  0  0  0  0  0  0  0  0  0
  201.1497  134.5487  133.2523 O   0  0  0  0  0  0  0  0  0  0  0  0
  200.9776  136.4646  131.8722 C   0  0  1  0  0  0  0  0  0  0  0  0
  201.9634  137.3613  131.1120 C   0  0  0  0  0  0  0  0  0  0  0  0
  203.2366  136.8176  131.0921 O   0  0  0  0  0  0  0  0  0  0  0  0
  204.2926  137.6227  132.1494 P   0  0  2  0  0  5  0  0  0  0  0  0
  203.1634  139.0279  133.2595 S   0  0  0  0  0  0  0  0  0  0  0  0
  205.2935  138.3598  131.2879 O   0  0  0  0  0  0  0  0  0  0  0  0
  205.0269  136.5771  133.2332 O   0  0  0  0  0  0  0  0  0  0  0  0
  205.8940  135.6763  132.6087 C   0  0  1  0  0  0  0  0  0  0  0  0
  207.2315  135.8129  133.3422 C   0  0  1  0  0  0  0  0  0  0  0  0
  207.3426  137.0488  133.9547 O   0  0  0  0  0  0  0  0  0  0  0  0
  199.9260  136.2073  131.0397 O   0  0  0  0  0  0  0  0  0  0  0  0
  199.8239  134.8606  130.8206 C   0  0  1  0  0  0  0  0  0  0  0  0
  199.2281  134.5341  129.5428 N   0  0  0  0  0  0  0  0  0  0  0  0
  199.4996  135.1194  128.3574 C   0  0  0  0  0  0  0  0  0  0  0  0
  198.7613  134.5653  127.3788 N   0  0  0  0  0  0  0  0  0  0  0  0
  197.9932  133.6029  127.9244 C   0  0  0  0  0  0  0  0  0  0  0  0
  198.2963  133.5971  129.2707 C   0  0  0  0  0  0  0  0  0  0  0  0
  197.6456  132.7001  130.0636 N   0  0  0  0  0  0  0  0  0  0  0  0
  196.7481  131.8688  129.5133 C   0  0  0  0  0  0  0  0  0  0  0  0
  196.4598  131.8835  128.1958 N   0  0  0  0  0  0  0  0  0  0  0  0
  197.0659  132.7433  127.3583 C   0  0  0  0  0  0  0  0  0  0  0  0
  196.7655  132.7629  125.9679 N   0  0  0  0  0  0  0  0  0  0  0  0
  1  2  1  0
  2  3  2  0
  3  4  1  0
  4  5  2  0
  5  6  1  0
  6  7  2  0
  7  8  1  0
  8  9  2  0
  9 10  1  0
 11 10  1  6
 11 12  1  0
 12 13  1  0
 13 14  1  6
 14 15  1  0
 15 16  1  0
 16 17  1  6
 16 18  2  0
 16 19  1  0
 20 19  1  1
 20 21  1  0
 21 22  1  1
 21 23  1  0
 23 24  1  6
 24 25  1  0
 25 26  1  0
 26 27  1  1
 26 28  2  0
 26 29  1  0
 30 29  1  1
 30 31  1  0
 31 32  1  1
 23 33  1  0
 33 34  1  0
 34 35  1  6
 35 36  1  0
 36 37  2  0
 37 38  1  0
 38 39  2  0
 39 40  1  0
 40 41  2  0
 41 42  1  0
 42 43  2  0
 43 44  1  0
  7  2  1  0
 31 11  1  0
 39 35  1  0
 10  6  1  0
 30 13  1  0
 43 38  1  0
 34 20  1  0
M  END
$$$$
