
     RDKit          3D

 44 50  0  0  0  0  0  0  0  0999 V2000
  129.8291  135.5182  134.4049 N   0  0  0  0  0  0  0  0  0  0  0  0
  129.2562  136.7728  134.0594 C   0  0  0  0  0  0  0  0  0  0  0  0
  128.0379  136.8329  133.4773 N   0  0  0  0  0  0  0  0  0  0  0  0
  127.4833  138.0274  133.1440 C   0  0  0  0  0  0  0  0  0  0  0  0
  128.1164  139.1889  133.3766 N   0  0  0  0  0  0  0  0  0  0  0  0
  129.3412  139.1829  133.9585 C   0  0  0  0  0  0  0  0  0  0  0  0
  129.8973  137.9784  134.2932 C   0  0  0  0  0  0  0  0  0  0  0  0
  131.0830  138.2461  134.8405 N   0  0  0  0  0  0  0  0  0  0  0  0
  131.2597  139.5794  134.8463 C   0  0  0  0  0  0  0  0  0  0  0  0
  130.2049  140.1738  134.3106 N   0  0  0  0  0  0  0  0  0  0  0  0
  129.9042  141.5649  134.0863 C   0  0  2  0  0  0  0  0  0  0  0  0
  129.0064  142.0799  135.0267 O   0  0  0  0  0  0  0  0  0  0  0  0
  128.7248  143.3371  134.5203 C   0  0  2  0  0  0  0  0  0  0  0  0
  127.4811  143.8608  135.1612 C   0  0  0  0  0  0  0  0  0  0  0  0
  127.8449  144.8332  136.1126 O   0  0  0  0  0  0  0  0  0  0  0  0
  126.7469  146.0920  136.1724 P   0  0  2  0  0  5  0  0  0  0  0  0
  125.6711  146.0288  137.9832 S   0  0  0  0  0  0  0  0  0  0  0  0
  125.7547  145.8982  135.0415 O   0  0  0  0  0  0  0  0  0  0  0  0
  127.5004  147.6122  136.0571 O   0  0  0  0  0  0  0  0  0  0  0  0
  127.6310  147.9222  134.7341 C   0  0  2  0  0  0  0  0  0  0  0  0
  128.8901  147.3085  134.1046 C   0  0  2  0  0  0  0  0  0  0  0  0
  129.9494  147.5216  134.9768 O   0  0  0  0  0  0  0  0  0  0  0  0
  129.0383  148.2226  132.9071 C   0  0  1  0  0  0  0  0  0  0  0  0
  128.2927  147.5442  131.7506 C   0  0  0  0  0  0  0  0  0  0  0  0
  127.9155  146.2521  132.0748 O   0  0  0  0  0  0  0  0  0  0  0  0
  128.8831  145.0905  131.3030 P   0  0  2  0  0  5  0  0  0  0  0  0
  130.4498  146.1030  130.3018 S   0  0  0  0  0  0  0  0  0  0  0  0
  128.0056  144.4012  130.2822 O   0  0  0  0  0  0  0  0  0  0  0  0
  129.5720  144.0148  132.3870 O   0  0  0  0  0  0  0  0  0  0  0  0
  128.6232  143.2077  133.0210 C   0  0  1  0  0  0  0  0  0  0  0  0
  129.0919  141.7664  132.8004 C   0  0  1  0  0  0  0  0  0  0  0  0
  129.9035  141.6693  131.6838 O   0  0  0  0  0  0  0  0  0  0  0  0
  128.3944  149.3949  133.1832 O   0  0  0  0  0  0  0  0  0  0  0  0
  127.9368  149.3827  134.4725 C   0  0  1  0  0  0  0  0  0  0  0  0
  126.7620  150.2047  134.6688 N   0  0  0  0  0  0  0  0  0  0  0  0
  125.4844  149.7756  134.7390 C   0  0  0  0  0  0  0  0  0  0  0  0
  124.6491  150.8131  134.9275 N   0  0  0  0  0  0  0  0  0  0  0  0
  125.3837  151.9406  134.9824 C   0  0  0  0  0  0  0  0  0  0  0  0
  126.6953  151.5438  134.8197 C   0  0  0  0  0  0  0  0  0  0  0  0
  127.6568  152.5092  134.8363 N   0  0  0  0  0  0  0  0  0  0  0  0
  127.2969  153.7900  135.0076 C   0  0  0  0  0  0  0  0  0  0  0  0
  126.0114  154.1662  135.1657 N   0  0  0  0  0  0  0  0  0  0  0  0
  125.0144  153.2640  135.1592 C   0  0  0  0  0  0  0  0  0  0  0  0
  123.6568  153.6555  135.3255 N   0  0  0  0  0  0  0  0  0  0  0  0
  1  2  1  0
  2  3  2  0
  3  4  1  0
  4  5  2  0
  5  6  1  0
  6  7  2  0
  7  8  1  0
  8  9  2  0
  9 10  1  0
 11 10  1  1
 11 12  1  0
 12 13  1  0
 13 14  1  1
 14 15  1  0
 15 16  1  0
 16 17  1  1
 16 18  2  0
 16 19  1  0
 20 19  1  1
 20 21  1  0
 21 22  1  1
 21 23  1  0
 23 24  1  6
 24 25  1  0
 25 26  1  0
 26 27  1  6
 26 28  2  0
 26 29  1  0
 30 29  1  6
 30 31  1  0
 31 32  1  6
 23 33  1  0
 33 34  1  0
 34 35  1  6
 35 36  1  0
 36 37  2  0
 37 38  1  0
 38 39  2  0
 39 40  1  0
 40 41  2  0
 41 42  1  0
 42 43  2  0
 43 44  1  0
  7  2  1  0
 31 11  1  0
 39 35  1  0
 10  6  1  0
 30 13  1  0
 43 38  1  0
 34 20  1  0
M  END
$$$$
