
     RDKit          3D

 44 50  0  0  0  0  0  0  0  0999 V2000
  202.2324  148.0002  126.9435 N   0  0  0  0  0  0  0  0  0  0  0  0
  202.2271  146.5991  127.1844 C   0  0  0  0  0  0  0  0  0  0  0  0
  202.3902  145.7276  126.1643 N   0  0  0  0  0  0  0  0  0  0  0  0
  202.3864  144.3873  126.3857 C   0  0  0  0  0  0  0  0  0  0  0  0
  202.2219  143.8758  127.6167 N   0  0  0  0  0  0  0  0  0  0  0  0
  202.0542  144.7078  128.6742 C   0  0  0  0  0  0  0  0  0  0  0  0
  202.0585  146.0573  128.4482 C   0  0  0  0  0  0  0  0  0  0  0  0
  201.8779  146.6417  129.6327 N   0  0  0  0  0  0  0  0  0  0  0  0
  201.7645  145.6829  130.5692 C   0  0  0  0  0  0  0  0  0  0  0  0
  201.8694  144.4900  130.0047 N   0  0  0  0  0  0  0  0  0  0  0  0
  201.8177  143.1622  130.5616 C   0  0  2  0  0  0  0  0  0  0  0  0
  203.0749  142.5524  130.6170 O   0  0  0  0  0  0  0  0  0  0  0  0
  202.7672  141.2572  130.9969 C   0  0  2  0  0  0  0  0  0  0  0  0
  203.9302  140.3667  130.7033 C   0  0  0  0  0  0  0  0  0  0  0  0
  204.5850  140.0738  131.9151 O   0  0  0  0  0  0  0  0  0  0  0  0
  205.1683  138.5078  131.9489 P   0  0  2  0  0  5  0  0  0  0  0  0
  207.2737  138.5176  131.8617 S   0  0  0  0  0  0  0  0  0  0  0  0
  204.6605  137.7952  130.7097 O   0  0  0  0  0  0  0  0  0  0  0  0
  204.7006  137.6745  133.3556 O   0  0  0  0  0  0  0  0  0  0  0  0
  203.4798  137.1077  133.1274 C   0  0  2  0  0  0  0  0  0  0  0  0
  202.3194  138.0811  133.3810 C   0  0  2  0  0  0  0  0  0  0  0  0
  202.5685  138.7378  134.5789 O   0  0  0  0  0  0  0  0  0  0  0  0
  201.1993  137.0830  133.5826 C   0  0  1  0  0  0  0  0  0  0  0  0
  200.5500  136.8783  132.2078 C   0  0  0  0  0  0  0  0  0  0  0  0
  201.0178  137.7944  131.2811 O   0  0  0  0  0  0  0  0  0  0  0  0
  199.8749  139.0029  130.9432 P   0  0  2  0  0  5  0  0  0  0  0  0
  198.2386  138.7446  132.2614 S   0  0  0  0  0  0  0  0  0  0  0  0
  199.4082  138.7764  129.5226 O   0  0  0  0  0  0  0  0  0  0  0  0
  200.4900  140.5435  131.1778 O   0  0  0  0  0  0  0  0  0  0  0  0
  201.5053  140.8615  130.2715 C   0  0  1  0  0  0  0  0  0  0  0  0
  201.0866  142.1874  129.6292 C   0  0  1  0  0  0  0  0  0  0  0  0
  199.7166  142.3684  129.7022 O   0  0  0  0  0  0  0  0  0  0  0  0
  201.7518  135.8926  133.9606 O   0  0  0  0  0  0  0  0  0  0  0  0
  203.1013  136.0388  134.1319 C   0  0  1  0  0  0  0  0  0  0  0  0
  203.8417  134.8176  133.8977 N   0  0  0  0  0  0  0  0  0  0  0  0
  203.6603  133.9516  132.8786 C   0  0  0  0  0  0  0  0  0  0  0  0
  204.5244  132.9250  132.9738 N   0  0  0  0  0  0  0  0  0  0  0  0
  205.2855  133.1153  134.0686 C   0  0  0  0  0  0  0  0  0  0  0  0
  204.8474  134.2968  134.6311 C   0  0  0  0  0  0  0  0  0  0  0  0
  205.4628  134.7241  135.7692 N   0  0  0  0  0  0  0  0  0  0  0  0
  206.4568  133.9906  136.2920 C   0  0  0  0  0  0  0  0  0  0  0  0
  206.8768  132.8370  135.7333 N   0  0  0  0  0  0  0  0  0  0  0  0
  206.3123  132.3594  134.6103 C   0  0  0  0  0  0  0  0  0  0  0  0
  206.7513  131.1432  134.0171 N   0  0  0  0  0  0  0  0  0  0  0  0
  1  2  1  0
  2  3  2  0
  3  4  1  0
  4  5  2  0
  5  6  1  0
  6  7  2  0
  7  8  1  0
  8  9  2  0
  9 10  1  0
 11 10  1  6
 11 12  1  0
 12 13  1  0
 13 14  1  6
 14 15  1  0
 15 16  1  0
 16 17  1  6
 16 18  2  0
 16 19  1  0
 20 19  1  1
 20 21  1  0
 21 22  1  1
 21 23  1  0
 23 24  1  6
 24 25  1  0
 25 26  1  0
 26 27  1  1
 26 28  2  0
 26 29  1  0
 30 29  1  1
 30 31  1  0
 31 32  1  1
 23 33  1  0
 33 34  1  0
 34 35  1  6
 35 36  1  0
 36 37  2  0
 37 38  1  0
 38 39  2  0
 39 40  1  0
 40 41  2  0
 41 42  1  0
 42 43  2  0
 43 44  1  0
  7  2  1  0
 31 11  1  0
 39 35  1  0
 10  6  1  0
 30 13  1  0
 43 38  1  0
 34 20  1  0
M  END
$$$$
