
     RDKit          3D

 44 50  0  0  0  0  0  0  0  0999 V2000
  200.5021  147.7926  127.0565 N   0  0  0  0  0  0  0  0  0  0  0  0
  200.1870  146.5453  127.6617 C   0  0  0  0  0  0  0  0  0  0  0  0
  198.9128  146.0952  127.6808 N   0  0  0  0  0  0  0  0  0  0  0  0
  198.6031  144.9046  128.2569 C   0  0  0  0  0  0  0  0  0  0  0  0
  199.5416  144.1310  128.8268 N   0  0  0  0  0  0  0  0  0  0  0  0
  200.8352  144.5374  128.8341 C   0  0  0  0  0  0  0  0  0  0  0  0
  201.1442  145.7371  128.2531 C   0  0  0  0  0  0  0  0  0  0  0  0
  202.4599  145.8996  128.3931 N   0  0  0  0  0  0  0  0  0  0  0  0
  202.9556  144.8313  129.0428 C   0  0  0  0  0  0  0  0  0  0  0  0
  201.9780  143.9836  129.3230 N   0  0  0  0  0  0  0  0  0  0  0  0
  201.9823  142.7100  129.9968 C   0  0  2  0  0  0  0  0  0  0  0  0
  203.2372  142.0934  129.9743 O   0  0  0  0  0  0  0  0  0  0  0  0
  202.9685  140.8398  130.4965 C   0  0  2  0  0  0  0  0  0  0  0  0
  204.0925  139.9141  130.1628 C   0  0  0  0  0  0  0  0  0  0  0  0
  204.8702  139.7207  131.3207 O   0  0  0  0  0  0  0  0  0  0  0  0
  205.4508  138.1573  131.4310 P   0  0  2  0  0  5  0  0  0  0  0  0
  207.5354  138.1359  131.1243 S   0  0  0  0  0  0  0  0  0  0  0  0
  204.8144  137.3451  130.3191 O   0  0  0  0  0  0  0  0  0  0  0  0
  205.1315  137.4552  132.9467 O   0  0  0  0  0  0  0  0  0  0  0  0
  203.8924  136.8843  132.8978 C   0  0  2  0  0  0  0  0  0  0  0  0
  202.7669  137.8890  133.1844 C   0  0  2  0  0  0  0  0  0  0  0  0
  203.1414  138.6449  134.2873 O   0  0  0  0  0  0  0  0  0  0  0  0
  201.6721  136.9249  133.5887 C   0  0  1  0  0  0  0  0  0  0  0  0
  200.8819  136.6083  132.3124 C   0  0  0  0  0  0  0  0  0  0  0  0
  201.2517  137.4347  131.2650 O   0  0  0  0  0  0  0  0  0  0  0  0
  200.0820  138.6219  130.9432 P   0  0  2  0  0  5  0  0  0  0  0  0
  198.5925  138.4979  132.4425 S   0  0  0  0  0  0  0  0  0  0  0  0
  199.4685  138.2776  129.6045 O   0  0  0  0  0  0  0  0  0  0  0  0
  200.7214  140.1701  130.9760 O   0  0  0  0  0  0  0  0  0  0  0  0
  201.6367  140.3965  129.9443 C   0  0  1  0  0  0  0  0  0  0  0  0
  201.1556  141.6658  129.2351 C   0  0  1  0  0  0  0  0  0  0  0  0
  199.8011  141.8678  129.4344 O   0  0  0  0  0  0  0  0  0  0  0  0
  202.2588  135.7659  134.0102 O   0  0  0  0  0  0  0  0  0  0  0  0
  203.6192  135.9114  134.0263 C   0  0  1  0  0  0  0  0  0  0  0  0
  204.3285  134.6662  133.8245 N   0  0  0  0  0  0  0  0  0  0  0  0
  204.1467  133.7938  132.8109 C   0  0  0  0  0  0  0  0  0  0  0  0
  204.9774  132.7434  132.9393 N   0  0  0  0  0  0  0  0  0  0  0  0
  205.7163  132.9243  134.0506 C   0  0  0  0  0  0  0  0  0  0  0  0
  205.2998  134.1248  134.5887 C   0  0  0  0  0  0  0  0  0  0  0  0
  205.8993  134.5474  135.7370 N   0  0  0  0  0  0  0  0  0  0  0  0
  206.8578  133.7913  136.2928 C   0  0  0  0  0  0  0  0  0  0  0  0
  207.2570  132.6192  135.7578 N   0  0  0  0  0  0  0  0  0  0  0  0
  206.7065  132.1450  134.6264 C   0  0  0  0  0  0  0  0  0  0  0  0
  207.1238  130.9095  134.0580 N   0  0  0  0  0  0  0  0  0  0  0  0
  1  2  1  0
  2  3  2  0
  3  4  1  0
  4  5  2  0
  5  6  1  0
  6  7  2  0
  7  8  1  0
  8  9  2  0
  9 10  1  0
 11 10  1  6
 11 12  1  0
 12 13  1  0
 13 14  1  6
 14 15  1  0
 15 16  1  0
 16 17  1  6
 16 18  2  0
 16 19  1  0
 20 19  1  1
 20 21  1  0
 21 22  1  1
 21 23  1  0
 23 24  1  6
 24 25  1  0
 25 26  1  0
 26 27  1  1
 26 28  2  0
 26 29  1  0
 30 29  1  1
 30 31  1  0
 31 32  1  1
 23 33  1  0
 33 34  1  0
 34 35  1  6
 35 36  1  0
 36 37  2  0
 37 38  1  0
 38 39  2  0
 39 40  1  0
 40 41  2  0
 41 42  1  0
 42 43  2  0
 43 44  1  0
  7  2  1  0
 31 11  1  0
 39 35  1  0
 10  6  1  0
 30 13  1  0
 43 38  1  0
 34 20  1  0
M  END
$$$$
