
     RDKit          3D

 44 50  0  0  0  0  0  0  0  0999 V2000
  129.3769  136.5471  132.0553 N   0  0  0  0  0  0  0  0  0  0  0  0
  128.6772  137.7637  132.2829 C   0  0  0  0  0  0  0  0  0  0  0  0
  127.4482  137.9565  131.7548 N   0  0  0  0  0  0  0  0  0  0  0  0
  126.7728  139.1159  131.9673 C   0  0  0  0  0  0  0  0  0  0  0  0
  127.2930  140.1109  132.7045 N   0  0  0  0  0  0  0  0  0  0  0  0
  128.5232  139.9669  133.2565 C   0  0  0  0  0  0  0  0  0  0  0  0
  129.2011  138.7981  133.0408 C   0  0  0  0  0  0  0  0  0  0  0  0
  130.3649  138.9099  133.6813 N   0  0  0  0  0  0  0  0  0  0  0  0
  130.4099  140.1142  134.2787 C   0  0  0  0  0  0  0  0  0  0  0  0
  129.2919  140.7791  134.0319 N   0  0  0  0  0  0  0  0  0  0  0  0
  128.8519  142.0904  134.4356 C   0  0  2  0  0  0  0  0  0  0  0  0
  129.3686  143.1051  133.6238 O   0  0  0  0  0  0  0  0  0  0  0  0
  128.9794  144.2543  134.2902 C   0  0  2  0  0  0  0  0  0  0  0  0
  129.7907  145.4088  133.7997 C   0  0  0  0  0  0  0  0  0  0  0  0
  128.9872  146.1877  132.9449 O   0  0  0  0  0  0  0  0  0  0  0  0
  129.3026  147.8212  133.1054 P   0  0  2  0  0  5  0  0  0  0  0  0
  130.2643  148.5461  131.3763 S   0  0  0  0  0  0  0  0  0  0  0  0
  130.2576  147.9984  134.2707 O   0  0  0  0  0  0  0  0  0  0  0  0
  127.8866  148.7320  133.3449 O   0  0  0  0  0  0  0  0  0  0  0  0
  127.6176  148.7550  134.6831 C   0  0  2  0  0  0  0  0  0  0  0  0
  126.8382  147.5173  135.1508 C   0  0  2  0  0  0  0  0  0  0  0  0
  125.8157  147.2885  134.2397 O   0  0  0  0  0  0  0  0  0  0  0  0
  126.2502  148.0657  136.4334 C   0  0  1  0  0  0  0  0  0  0  0  0
  127.2358  147.7015  137.5512 C   0  0  0  0  0  0  0  0  0  0  0  0
  128.2119  146.8265  137.1058 O   0  0  0  0  0  0  0  0  0  0  0  0
  127.9602  145.2458  137.6708 P   0  0  2  0  0  5  0  0  0  0  0  0
  126.0968  145.1976  138.6745 S   0  0  0  0  0  0  0  0  0  0  0  0
  129.0653  144.9562  138.6618 O   0  0  0  0  0  0  0  0  0  0  0  0
  127.9062  144.1263  136.4256 O   0  0  0  0  0  0  0  0  0  0  0  0
  129.1322  143.9932  135.7679 C   0  0  1  0  0  0  0  0  0  0  0  0
  129.4524  142.4956  135.7880 C   0  0  1  0  0  0  0  0  0  0  0  0
  128.7997  141.8581  136.8285 O   0  0  0  0  0  0  0  0  0  0  0  0
  126.2168  149.4278  136.3390 O   0  0  0  0  0  0  0  0  0  0  0  0
  126.6185  149.8182  135.0907 C   0  0  1  0  0  0  0  0  0  0  0  0
  127.2201  151.1343  135.0707 N   0  0  0  0  0  0  0  0  0  0  0  0
  128.4139  151.4794  135.5971 C   0  0  0  0  0  0  0  0  0  0  0  0
  128.6570  152.7870  135.3953 N   0  0  0  0  0  0  0  0  0  0  0  0
  127.6115  153.3116  134.7278 C   0  0  0  0  0  0  0  0  0  0  0  0
  126.7273  152.2699  134.5342 C   0  0  0  0  0  0  0  0  0  0  0  0
  125.5668  152.5376  133.8720 N   0  0  0  0  0  0  0  0  0  0  0  0
  125.3316  153.7854  133.4396 C   0  0  0  0  0  0  0  0  0  0  0  0
  126.2033  154.7959  133.6346 N   0  0  0  0  0  0  0  0  0  0  0  0
  127.3663  154.5995  134.2803 C   0  0  0  0  0  0  0  0  0  0  0  0
  128.2892  155.6619  134.4886 N   0  0  0  0  0  0  0  0  0  0  0  0
  1  2  1  0
  2  3  2  0
  3  4  1  0
  4  5  2  0
  5  6  1  0
  6  7  2  0
  7  8  1  0
  8  9  2  0
  9 10  1  0
 11 10  1  6
 11 12  1  0
 12 13  1  0
 13 14  1  6
 14 15  1  0
 15 16  1  0
 16 17  1  6
 16 18  2  0
 16 19  1  0
 20 19  1  6
 20 21  1  0
 21 22  1  6
 21 23  1  0
 23 24  1  1
 24 25  1  0
 25 26  1  0
 26 27  1  1
 26 28  2  0
 26 29  1  0
 30 29  1  1
 30 31  1  0
 31 32  1  1
 23 33  1  0
 33 34  1  0
 34 35  1  1
 35 36  1  0
 36 37  2  0
 37 38  1  0
 38 39  2  0
 39 40  1  0
 40 41  2  0
 41 42  1  0
 42 43  2  0
 43 44  1  0
  7  2  1  0
 31 11  1  0
 39 35  1  0
 10  6  1  0
 30 13  1  0
 43 38  1  0
 34 20  1  0
M  END
$$$$
