
     RDKit          3D

 44 50  0  0  0  0  0  0  0  0999 V2000
  205.5378  129.2245  133.8252 N   0  0  0  0  0  0  0  0  0  0  0  0
  204.6337  130.3209  133.7824 C   0  0  0  0  0  0  0  0  0  0  0  0
  203.4220  130.2336  134.3746 N   0  0  0  0  0  0  0  0  0  0  0  0
  202.5522  131.2765  134.3385 C   0  0  0  0  0  0  0  0  0  0  0  0
  202.8566  132.4283  133.7183 N   0  0  0  0  0  0  0  0  0  0  0  0
  204.0600  132.5666  133.1086 C   0  0  0  0  0  0  0  0  0  0  0  0
  204.9340  131.5145  133.1467 C   0  0  0  0  0  0  0  0  0  0  0  0
  206.0243  131.9021  132.4848 N   0  0  0  0  0  0  0  0  0  0  0  0
  205.8342  133.1597  132.0474 C   0  0  0  0  0  0  0  0  0  0  0  0
  204.6372  133.5872  132.4180 N   0  0  0  0  0  0  0  0  0  0  0  0
  203.9629  134.8423  132.2037 C   0  0  2  0  0  0  0  0  0  0  0  0
  204.7278  135.7435  131.4566 O   0  0  0  0  0  0  0  0  0  0  0  0
  203.9847  136.9089  131.5339 C   0  0  2  0  0  0  0  0  0  0  0  0
  204.8443  138.0694  131.1519 C   0  0  0  0  0  0  0  0  0  0  0  0
  204.4906  138.4778  129.8515 O   0  0  0  0  0  0  0  0  0  0  0  0
  204.5703  140.1378  129.6732 P   0  0  2  0  0  5  0  0  0  0  0  0
  206.1835  140.6546  128.4200 S   0  0  0  0  0  0  0  0  0  0  0  0
  204.8384  140.7402  131.0393 O   0  0  0  0  0  0  0  0  0  0  0  0
  203.1487  140.7840  128.9997 O   0  0  0  0  0  0  0  0  0  0  0  0
  202.2736  141.0363  130.0166 C   0  0  2  0  0  0  0  0  0  0  0  0
  201.4588  139.7974  130.4164 C   0  0  2  0  0  0  0  0  0  0  0  0
  201.0142  139.1861  129.2517 O   0  0  0  0  0  0  0  0  0  0  0  0
  200.2921  140.4787  131.0990 C   0  0  1  0  0  0  0  0  0  0  0  0
  200.6494  140.5586  132.5888 C   0  0  0  0  0  0  0  0  0  0  0  0
  201.7812  139.8172  132.8825 O   0  0  0  0  0  0  0  0  0  0  0  0
  201.4076  138.3736  133.6934 P   0  0  2  0  0  5  0  0  0  0  0  0
  199.3004  138.1753  133.7416 S   0  0  0  0  0  0  0  0  0  0  0  0
  201.9246  138.5214  135.1069 O   0  0  0  0  0  0  0  0  0  0  0  0
  202.0362  137.0278  132.9184 O   0  0  0  0  0  0  0  0  0  0  0  0
  203.4335  137.0009  132.9349 C   0  0  1  0  0  0  0  0  0  0  0  0
  203.8145  135.6334  133.5098 C   0  0  1  0  0  0  0  0  0  0  0  0
  202.7937  135.1152  134.2873 O   0  0  0  0  0  0  0  0  0  0  0  0
  200.2076  141.7567  130.6248 O   0  0  0  0  0  0  0  0  0  0  0  0
  201.1258  141.9454  129.6281 C   0  0  1  0  0  0  0  0  0  0  0  0
  201.5656  143.3191  129.5102 N   0  0  0  0  0  0  0  0  0  0  0  0
  202.2467  144.0263  130.4362 C   0  0  0  0  0  0  0  0  0  0  0  0
  202.4899  145.2725  129.9915 N   0  0  0  0  0  0  0  0  0  0  0  0
  201.9633  145.3895  128.7575 C   0  0  0  0  0  0  0  0  0  0  0  0
  201.3924  144.1656  128.4740 C   0  0  0  0  0  0  0  0  0  0  0  0
  200.7813  144.0153  127.2653 N   0  0  0  0  0  0  0  0  0  0  0  0
  200.7583  145.0480  126.4095 C   0  0  0  0  0  0  0  0  0  0  0  0
  201.3197  146.2400  126.6975 N   0  0  0  0  0  0  0  0  0  0  0  0
  201.9382  146.4546  127.8720 C   0  0  0  0  0  0  0  0  0  0  0  0
  202.5320  147.7100  128.1807 N   0  0  0  0  0  0  0  0  0  0  0  0
  1  2  1  0
  2  3  2  0
  3  4  1  0
  4  5  2  0
  5  6  1  0
  6  7  2  0
  7  8  1  0
  8  9  2  0
  9 10  1  0
 11 10  1  1
 11 12  1  0
 12 13  1  0
 13 14  1  1
 14 15  1  0
 15 16  1  0
 16 17  1  6
 16 18  2  0
 16 19  1  0
 20 19  1  6
 20 21  1  0
 21 22  1  6
 21 23  1  0
 23 24  1  1
 24 25  1  0
 25 26  1  0
 26 27  1  1
 26 28  2  0
 26 29  1  0
 30 29  1  6
 30 31  1  0
 31 32  1  1
 23 33  1  0
 33 34  1  0
 34 35  1  1
 35 36  1  0
 36 37  2  0
 37 38  1  0
 38 39  2  0
 39 40  1  0
 40 41  2  0
 41 42  1  0
 42 43  2  0
 43 44  1  0
  7  2  1  0
 31 11  1  0
 39 35  1  0
 10  6  1  0
 30 13  1  0
 43 38  1  0
 34 20  1  0
M  END
$$$$
