
     RDKit          3D

 44 50  0  0  0  0  0  0  0  0999 V2000
  201.1157  147.6146  127.0570 N   0  0  0  0  0  0  0  0  0  0  0  0
  201.2252  146.2150  127.2820 C   0  0  0  0  0  0  0  0  0  0  0  0
  201.3386  145.3603  126.2412 N   0  0  0  0  0  0  0  0  0  0  0  0
  201.4437  144.0217  126.4472 C   0  0  0  0  0  0  0  0  0  0  0  0
  201.4395  143.4954  127.6830 N   0  0  0  0  0  0  0  0  0  0  0  0
  201.3279  144.3103  128.7611 C   0  0  0  0  0  0  0  0  0  0  0  0
  201.2223  145.6582  128.5504 C   0  0  0  0  0  0  0  0  0  0  0  0
  201.1268  146.2245  129.7534 N   0  0  0  0  0  0  0  0  0  0  0  0
  201.1719  145.2566  130.6862 C   0  0  0  0  0  0  0  0  0  0  0  0
  201.2949  144.0754  130.1010 N   0  0  0  0  0  0  0  0  0  0  0  0
  201.3860  142.7446  130.6458 C   0  0  2  0  0  0  0  0  0  0  0  0
  202.6821  142.2237  130.5803 O   0  0  0  0  0  0  0  0  0  0  0  0
  202.5005  140.9086  130.9725 C   0  0  2  0  0  0  0  0  0  0  0  0
  203.6906  140.1026  130.5649 C   0  0  0  0  0  0  0  0  0  0  0  0
  204.4719  139.8506  131.7090 O   0  0  0  0  0  0  0  0  0  0  0  0
  205.1626  138.3291  131.6727 P   0  0  2  0  0  5  0  0  0  0  0  0
  207.2454  138.4860  131.3949 S   0  0  0  0  0  0  0  0  0  0  0  0
  204.5941  137.5884  130.4771 O   0  0  0  0  0  0  0  0  0  0  0  0
  204.8838  137.4588  133.1070 O   0  0  0  0  0  0  0  0  0  0  0  0
  203.6894  136.8093  132.9844 C   0  0  2  0  0  0  0  0  0  0  0  0
  202.4926  137.6983  133.3528 C   0  0  2  0  0  0  0  0  0  0  0  0
  202.8040  138.3653  134.5302 O   0  0  0  0  0  0  0  0  0  0  0  0
  201.4672  136.6236  133.6444 C   0  0  1  0  0  0  0  0  0  0  0  0
  200.7108  136.3803  132.3321 C   0  0  0  0  0  0  0  0  0  0  0  0
  201.0276  137.3309  131.3767 O   0  0  0  0  0  0  0  0  0  0  0  0
  199.7779  138.4584  131.1570 P   0  0  2  0  0  5  0  0  0  0  0  0
  198.2905  138.0807  132.6155 S   0  0  0  0  0  0  0  0  0  0  0  0
  199.2002  138.2063  129.7823 O   0  0  0  0  0  0  0  0  0  0  0  0
  200.3041  140.0370  131.3516 O   0  0  0  0  0  0  0  0  0  0  0  0
  201.2080  140.4292  130.3604 C   0  0  1  0  0  0  0  0  0  0  0  0
  200.6419  141.7255  129.7732 C   0  0  1  0  0  0  0  0  0  0  0  0
  199.2751  141.8102  129.9722 O   0  0  0  0  0  0  0  0  0  0  0  0
  202.1326  135.4729  133.9577 O   0  0  0  0  0  0  0  0  0  0  0  0
  203.4788  135.7121  134.0074 C   0  0  1  0  0  0  0  0  0  0  0  0
  204.2773  134.5465  133.6937 N   0  0  0  0  0  0  0  0  0  0  0  0
  204.2169  133.8127  132.5627 C   0  0  0  0  0  0  0  0  0  0  0  0
  205.1025  132.8011  132.6101 N   0  0  0  0  0  0  0  0  0  0  0  0
  205.7554  132.8678  133.7862 C   0  0  0  0  0  0  0  0  0  0  0  0
  205.2297  133.9590  134.4475 C   0  0  0  0  0  0  0  0  0  0  0  0
  205.7260  134.2521  135.6822 N   0  0  0  0  0  0  0  0  0  0  0  0
  206.6927  133.4800  136.2005 C   0  0  0  0  0  0  0  0  0  0  0  0
  207.1991  132.4156  135.5448 N   0  0  0  0  0  0  0  0  0  0  0  0
  206.7538  132.0718  134.3235 C   0  0  0  0  0  0  0  0  0  0  0  0
  207.2845  130.9502  133.6277 N   0  0  0  0  0  0  0  0  0  0  0  0
  1  2  1  0
  2  3  2  0
  3  4  1  0
  4  5  2  0
  5  6  1  0
  6  7  2  0
  7  8  1  0
  8  9  2  0
  9 10  1  0
 11 10  1  6
 11 12  1  0
 12 13  1  0
 13 14  1  6
 14 15  1  0
 15 16  1  0
 16 17  1  6
 16 18  2  0
 16 19  1  0
 20 19  1  1
 20 21  1  0
 21 22  1  1
 21 23  1  0
 23 24  1  6
 24 25  1  0
 25 26  1  0
 26 27  1  1
 26 28  2  0
 26 29  1  0
 30 29  1  1
 30 31  1  0
 31 32  1  1
 23 33  1  0
 33 34  1  0
 34 35  1  6
 35 36  1  0
 36 37  2  0
 37 38  1  0
 38 39  2  0
 39 40  1  0
 40 41  2  0
 41 42  1  0
 42 43  2  0
 43 44  1  0
  7  2  1  0
 31 11  1  0
 39 35  1  0
 10  6  1  0
 30 13  1  0
 43 38  1  0
 34 20  1  0
M  END
$$$$
