
     RDKit          3D

 44 50  0  0  0  0  0  0  0  0999 V2000
  125.0599  155.0960  136.2182 N   0  0  0  0  0  0  0  0  0  0  0  0
  124.8678  153.6992  136.0351 C   0  0  0  0  0  0  0  0  0  0  0  0
  123.6438  153.1490  136.1948 N   0  0  0  0  0  0  0  0  0  0  0  0
  123.4515  151.8154  136.0218 C   0  0  0  0  0  0  0  0  0  0  0  0
  124.4607  150.9943  135.6877 N   0  0  0  0  0  0  0  0  0  0  0  0
  125.7083  151.4969  135.5157 C   0  0  0  0  0  0  0  0  0  0  0  0
  125.8989  152.8406  135.6906 C   0  0  0  0  0  0  0  0  0  0  0  0
  127.1922  153.0733  135.4666 N   0  0  0  0  0  0  0  0  0  0  0  0
  127.7895  151.9076  135.1609 C   0  0  0  0  0  0  0  0  0  0  0  0
  126.8993  150.9279  135.1850 N   0  0  0  0  0  0  0  0  0  0  0  0
  127.0275  149.5148  134.9347 C   0  0  2  0  0  0  0  0  0  0  0  0
  128.3103  149.1582  134.5068 O   0  0  0  0  0  0  0  0  0  0  0  0
  128.1542  147.8282  134.1561 C   0  0  2  0  0  0  0  0  0  0  0  0
  129.3006  147.4060  133.2963 C   0  0  0  0  0  0  0  0  0  0  0  0
  130.1738  146.6192  134.0717 O   0  0  0  0  0  0  0  0  0  0  0  0
  130.8495  145.3743  133.1843 P   0  0  2  0  0  5  0  0  0  0  0  0
  132.9025  145.7358  132.8769 S   0  0  0  0  0  0  0  0  0  0  0  0
  130.1778  145.3543  131.8244 O   0  0  0  0  0  0  0  0  0  0  0  0
  130.6871  143.8681  133.9571 O   0  0  0  0  0  0  0  0  0  0  0  0
  129.4825  143.3348  133.5992 C   0  0  2  0  0  0  0  0  0  0  0  0
  128.3266  143.8478  134.4703 C   0  0  2  0  0  0  0  0  0  0  0  0
  128.7402  143.8048  135.7952 O   0  0  0  0  0  0  0  0  0  0  0  0
  127.3226  142.7418  134.2249 C   0  0  1  0  0  0  0  0  0  0  0  0
  126.4569  143.1980  133.0434 C   0  0  0  0  0  0  0  0  0  0  0  0
  126.6982  144.5212  132.7151 O   0  0  0  0  0  0  0  0  0  0  0  0
  125.4415  145.5448  133.2193 P   0  0  2  0  0  5  0  0  0  0  0  0
  124.0798  144.3963  134.3635 S   0  0  0  0  0  0  0  0  0  0  0  0
  124.7486  146.0335  131.9671 O   0  0  0  0  0  0  0  0  0  0  0  0
  125.9920  146.8024  134.1797 O   0  0  0  0  0  0  0  0  0  0  0  0
  126.8117  147.6936  133.4816 C   0  0  1  0  0  0  0  0  0  0  0  0
  126.2063  149.0812  133.7134 C   0  0  1  0  0  0  0  0  0  0  0  0
  124.8616  148.9944  134.0286 O   0  0  0  0  0  0  0  0  0  0  0  0
  128.0049  141.6261  133.8313 O   0  0  0  0  0  0  0  0  0  0  0  0
  129.3520  141.8557  133.8992 C   0  0  1  0  0  0  0  0  0  0  0  0
  130.1139  141.0634  132.9577 N   0  0  0  0  0  0  0  0  0  0  0  0
  130.1546  141.2271  131.6187 C   0  0  0  0  0  0  0  0  0  0  0  0
  130.9660  140.3128  131.0572 N   0  0  0  0  0  0  0  0  0  0  0  0
  131.4670  139.5362  132.0369 C   0  0  0  0  0  0  0  0  0  0  0  0
  130.9267  140.0170  133.2121 C   0  0  0  0  0  0  0  0  0  0  0  0
  131.2785  139.3960  134.3728 N   0  0  0  0  0  0  0  0  0  0  0  0
  132.1246  138.3559  134.3295 C   0  0  0  0  0  0  0  0  0  0  0  0
  132.6466  137.8945  133.1747 N   0  0  0  0  0  0  0  0  0  0  0  0
  132.3406  138.4619  131.9947 C   0  0  0  0  0  0  0  0  0  0  0  0
  132.8884  137.9791  130.7737 N   0  0  0  0  0  0  0  0  0  0  0  0
  1  2  1  0
  2  3  2  0
  3  4  1  0
  4  5  2  0
  5  6  1  0
  6  7  2  0
  7  8  1  0
  8  9  2  0
  9 10  1  0
 11 10  1  6
 11 12  1  0
 12 13  1  0
 13 14  1  6
 14 15  1  0
 15 16  1  0
 16 17  1  6
 16 18  2  0
 16 19  1  0
 20 19  1  1
 20 21  1  0
 21 22  1  1
 21 23  1  0
 23 24  1  6
 24 25  1  0
 25 26  1  0
 26 27  1  1
 26 28  2  0
 26 29  1  0
 30 29  1  1
 30 31  1  0
 31 32  1  1
 23 33  1  0
 33 34  1  0
 34 35  1  6
 35 36  1  0
 36 37  2  0
 37 38  1  0
 38 39  2  0
 39 40  1  0
 40 41  2  0
 41 42  1  0
 42 43  2  0
 43 44  1  0
  7  2  1  0
 31 11  1  0
 39 35  1  0
 10  6  1  0
 30 13  1  0
 43 38  1  0
 34 20  1  0
M  END
$$$$
