
     RDKit          3D

 44 50  0  0  0  0  0  0  0  0999 V2000
  201.3544  130.9449  140.2272 N   0  0  0  0  0  0  0  0  0  0  0  0
  202.0945  131.4727  139.1340 C   0  0  0  0  0  0  0  0  0  0  0  0
  203.3356  131.0127  138.8607 N   0  0  0  0  0  0  0  0  0  0  0  0
  204.0496  131.5114  137.8182 C   0  0  0  0  0  0  0  0  0  0  0  0
  203.5569  132.4744  137.0218 N   0  0  0  0  0  0  0  0  0  0  0  0
  202.3162  132.9699  137.2537 C   0  0  0  0  0  0  0  0  0  0  0  0
  201.5994  132.4656  138.3045 C   0  0  0  0  0  0  0  0  0  0  0  0
  200.4332  133.1113  138.3138 N   0  0  0  0  0  0  0  0  0  0  0  0
  200.4245  133.9924  137.2975 C   0  0  0  0  0  0  0  0  0  0  0  0
  201.5683  133.9232  136.6344 N   0  0  0  0  0  0  0  0  0  0  0  0
  202.0504  134.6448  135.4842 C   0  0  2  0  0  0  0  0  0  0  0  0
  201.2481  135.7444  135.1636 O   0  0  0  0  0  0  0  0  0  0  0  0
  201.7757  136.1623  133.9539 C   0  0  2  0  0  0  0  0  0  0  0  0
  200.7929  137.0540  133.2678 C   0  0  0  0  0  0  0  0  0  0  0  0
  201.2350  138.3851  133.3928 O   0  0  0  0  0  0  0  0  0  0  0  0
  200.9086  139.2845  132.0224 P   0  0  2  0  0  5  0  0  0  0  0  0
  199.4021  140.7009  132.4278 S   0  0  0  0  0  0  0  0  0  0  0  0
  200.3773  138.3396  130.9613 O   0  0  0  0  0  0  0  0  0  0  0  0
  202.2786  140.1167  131.4545 O   0  0  0  0  0  0  0  0  0  0  0  0
  202.9669  139.2829  130.6211 C   0  0  2  0  0  0  0  0  0  0  0  0
  203.9163  138.3424  131.3776 C   0  0  2  0  0  0  0  0  0  0  0  0
  204.5967  139.0959  132.3249 O   0  0  0  0  0  0  0  0  0  0  0  0
  204.8617  137.9865  130.2503 C   0  0  1  0  0  0  0  0  0  0  0  0
  204.3128  136.7027  129.6147 C   0  0  0  0  0  0  0  0  0  0  0  0
  203.2894  136.1564  130.3705 O   0  0  0  0  0  0  0  0  0  0  0  0
  203.7891  134.7748  131.2205 P   0  0  2  0  0  5  0  0  0  0  0  0
  205.8777  134.5586  130.9501 S   0  0  0  0  0  0  0  0  0  0  0  0
  203.0824  133.5959  130.5899 O   0  0  0  0  0  0  0  0  0  0  0  0
  203.4902  134.8969  132.8645 O   0  0  0  0  0  0  0  0  0  0  0  0
  202.1251  134.9266  133.1626 C   0  0  1  0  0  0  0  0  0  0  0  0
  201.9034  133.8205  134.1985 C   0  0  1  0  0  0  0  0  0  0  0  0
  202.8897  132.8533  134.1171 O   0  0  0  0  0  0  0  0  0  0  0  0
  204.7952  138.9747  129.3100 O   0  0  0  0  0  0  0  0  0  0  0  0
  203.9904  139.9878  129.7549 C   0  0  1  0  0  0  0  0  0  0  0  0
  203.3507  140.7207  128.6833 N   0  0  0  0  0  0  0  0  0  0  0  0
  202.1796  140.4128  128.0876 C   0  0  0  0  0  0  0  0  0  0  0  0
  201.8875  141.3121  127.1307 N   0  0  0  0  0  0  0  0  0  0  0  0
  202.8774  142.2245  127.0941 C   0  0  0  0  0  0  0  0  0  0  0  0
  203.7789  141.8414  128.0661 C   0  0  0  0  0  0  0  0  0  0  0  0
  204.8912  142.6095  128.2379 N   0  0  0  0  0  0  0  0  0  0  0  0
  205.0651  143.6932  127.4667 C   0  0  0  0  0  0  0  0  0  0  0  0
  204.1770  144.0581  126.5194 N   0  0  0  0  0  0  0  0  0  0  0  0
  203.0592  143.3441  126.2988 C   0  0  0  0  0  0  0  0  0  0  0  0
  202.1192  143.7246  125.3009 N   0  0  0  0  0  0  0  0  0  0  0  0
  1  2  1  0
  2  3  2  0
  3  4  1  0
  4  5  2  0
  5  6  1  0
  6  7  2  0
  7  8  1  0
  8  9  2  0
  9 10  1  0
 11 10  1  1
 11 12  1  0
 12 13  1  0
 13 14  1  6
 14 15  1  0
 15 16  1  0
 16 17  1  1
 16 18  2  0
 16 19  1  0
 20 19  1  1
 20 21  1  0
 21 22  1  1
 21 23  1  0
 23 24  1  6
 24 25  1  0
 25 26  1  0
 26 27  1  1
 26 28  2  0
 26 29  1  0
 30 29  1  1
 30 31  1  0
 31 32  1  1
 23 33  1  0
 33 34  1  0
 34 35  1  6
 35 36  1  0
 36 37  2  0
 37 38  1  0
 38 39  2  0
 39 40  1  0
 40 41  2  0
 41 42  1  0
 42 43  2  0
 43 44  1  0
  7  2  1  0
 31 11  1  0
 39 35  1  0
 10  6  1  0
 30 13  1  0
 43 38  1  0
 34 20  1  0
M  END
$$$$
