
     RDKit          3D

 44 50  0  0  0  0  0  0  0  0999 V2000
  129.4196  136.0030  132.6836 N   0  0  0  0  0  0  0  0  0  0  0  0
  129.6757  137.3988  132.5964 C   0  0  0  0  0  0  0  0  0  0  0  0
  130.6115  137.8719  131.7437 N   0  0  0  0  0  0  0  0  0  0  0  0
  130.8625  139.2040  131.6541 C   0  0  0  0  0  0  0  0  0  0  0  0
  130.1973  140.0994  132.4024 N   0  0  0  0  0  0  0  0  0  0  0  0
  129.2484  139.6759  133.2735 C   0  0  0  0  0  0  0  0  0  0  0  0
  128.9977  138.3336  133.3616 C   0  0  0  0  0  0  0  0  0  0  0  0
  128.0381  138.1853  134.2749 N   0  0  0  0  0  0  0  0  0  0  0  0
  127.7011  139.4008  134.7419 C   0  0  0  0  0  0  0  0  0  0  0  0
  128.4300  140.3293  134.1424 N   0  0  0  0  0  0  0  0  0  0  0  0
  128.4547  141.7630  134.2840 C   0  0  2  0  0  0  0  0  0  0  0  0
  127.2651  142.3659  133.8633 O   0  0  0  0  0  0  0  0  0  0  0  0
  127.5754  143.7142  133.9102 C   0  0  2  0  0  0  0  0  0  0  0  0
  126.5757  144.4796  133.1060 C   0  0  0  0  0  0  0  0  0  0  0  0
  125.6915  145.1257  133.9913 O   0  0  0  0  0  0  0  0  0  0  0  0
  125.2325  146.6315  133.4296 P   0  0  2  0  0  5  0  0  0  0  0  0
  123.2044  146.6038  132.8586 S   0  0  0  0  0  0  0  0  0  0  0  0
  126.0543  146.9367  132.1915 O   0  0  0  0  0  0  0  0  0  0  0  0
  125.4362  147.8474  134.6010 O   0  0  0  0  0  0  0  0  0  0  0  0
  126.7155  148.3148  134.5100 C   0  0  2  0  0  0  0  0  0  0  0  0
  127.7154  147.4584  135.3006 C   0  0  2  0  0  0  0  0  0  0  0  0
  127.1586  147.1932  136.5446 O   0  0  0  0  0  0  0  0  0  0  0  0
  128.8333  148.4668  135.4590 C   0  0  1  0  0  0  0  0  0  0  0  0
  129.7852  148.2463  134.2762 C   0  0  0  0  0  0  0  0  0  0  0  0
  129.4687  147.0957  133.5742 O   0  0  0  0  0  0  0  0  0  0  0  0
  130.5657  145.8372  133.8806 P   0  0  2  0  0  5  0  0  0  0  0  0
  131.8826  146.4738  135.4111 S   0  0  0  0  0  0  0  0  0  0  0  0
  131.3518  145.6245  132.6063 O   0  0  0  0  0  0  0  0  0  0  0  0
  129.8018  144.4408  134.4032 O   0  0  0  0  0  0  0  0  0  0  0  0
  128.9927  143.8688  133.4176 C   0  0  1  0  0  0  0  0  0  0  0  0
  129.4445  142.4096  133.3063 C   0  0  1  0  0  0  0  0  0  0  0  0
  130.7469  142.2539  133.7476 O   0  0  0  0  0  0  0  0  0  0  0  0
  128.3001  149.7178  135.3332 O   0  0  0  0  0  0  0  0  0  0  0  0
  126.9392  149.6349  135.2187 C   0  0  1  0  0  0  0  0  0  0  0  0
  126.3616  150.7319  134.4722 N   0  0  0  0  0  0  0  0  0  0  0  0
  126.1410  150.7693  133.1413 C   0  0  0  0  0  0  0  0  0  0  0  0
  125.5909  151.9451  132.7882 N   0  0  0  0  0  0  0  0  0  0  0  0
  125.4465  152.6929  133.8989 C   0  0  0  0  0  0  0  0  0  0  0  0
  125.9309  151.9232  134.9368 C   0  0  0  0  0  0  0  0  0  0  0  0
  125.8992  152.4562  136.1905 N   0  0  0  0  0  0  0  0  0  0  0  0
  125.4054  153.6911  136.3655 C   0  0  0  0  0  0  0  0  0  0  0  0
  124.9346  154.4344  135.3432 N   0  0  0  0  0  0  0  0  0  0  0  0
  124.9371  153.9680  134.0821 C   0  0  0  0  0  0  0  0  0  0  0  0
  124.4417  154.7480  133.0004 N   0  0  0  0  0  0  0  0  0  0  0  0
  1  2  1  0
  2  3  2  0
  3  4  1  0
  4  5  2  0
  5  6  1  0
  6  7  2  0
  7  8  1  0
  8  9  2  0
  9 10  1  0
 11 10  1  6
 11 12  1  0
 12 13  1  0
 13 14  1  6
 14 15  1  0
 15 16  1  0
 16 17  1  6
 16 18  2  0
 16 19  1  0
 20 19  1  1
 20 21  1  0
 21 22  1  1
 21 23  1  0
 23 24  1  6
 24 25  1  0
 25 26  1  0
 26 27  1  1
 26 28  2  0
 26 29  1  0
 30 29  1  1
 30 31  1  0
 31 32  1  1
 23 33  1  0
 33 34  1  0
 34 35  1  6
 35 36  1  0
 36 37  2  0
 37 38  1  0
 38 39  2  0
 39 40  1  0
 40 41  2  0
 41 42  1  0
 42 43  2  0
 43 44  1  0
  7  2  1  0
 31 11  1  0
 39 35  1  0
 10  6  1  0
 30 13  1  0
 43 38  1  0
 34 20  1  0
M  END
$$$$
