
     RDKit          3D

 44 50  0  0  0  0  0  0  0  0999 V2000
  207.5913  130.1700  135.0033 N   0  0  0  0  0  0  0  0  0  0  0  0
  206.8811  131.3889  135.1802 C   0  0  0  0  0  0  0  0  0  0  0  0
  206.6319  131.8630  136.4211 N   0  0  0  0  0  0  0  0  0  0  0  0
  205.9541  133.0267  136.5991 C   0  0  0  0  0  0  0  0  0  0  0  0
  205.5068  133.7492  135.5588 N   0  0  0  0  0  0  0  0  0  0  0  0
  205.7310  133.3168  134.2933 C   0  0  0  0  0  0  0  0  0  0  0  0
  206.4139  132.1443  134.1171 C   0  0  0  0  0  0  0  0  0  0  0  0
  206.4987  131.9479  132.8013 N   0  0  0  0  0  0  0  0  0  0  0  0
  205.8859  132.9692  132.1765 C   0  0  0  0  0  0  0  0  0  0  0  0
  205.4079  133.8201  133.0710 N   0  0  0  0  0  0  0  0  0  0  0  0
  204.6808  135.0550  132.9211 C   0  0  2  0  0  0  0  0  0  0  0  0
  204.9331  135.6830  131.6974 O   0  0  0  0  0  0  0  0  0  0  0  0
  204.2975  136.9037  131.8463 C   0  0  2  0  0  0  0  0  0  0  0  0
  204.8090  137.8562  130.8152 C   0  0  0  0  0  0  0  0  0  0  0  0
  203.8320  137.9929  129.8104 O   0  0  0  0  0  0  0  0  0  0  0  0
  203.7604  139.5531  129.2151 P   0  0  2  0  0  5  0  0  0  0  0  0
  204.4978  139.6096  127.2420 S   0  0  0  0  0  0  0  0  0  0  0  0
  204.6667  140.4191  130.0693 O   0  0  0  0  0  0  0  0  0  0  0  0
  202.1751  140.1685  129.2056 O   0  0  0  0  0  0  0  0  0  0  0  0
  201.9302  140.7302  130.4255 C   0  0  2  0  0  0  0  0  0  0  0  0
  201.4689  139.7015  131.4681 C   0  0  2  0  0  0  0  0  0  0  0  0
  200.5130  138.8899  130.8716 O   0  0  0  0  0  0  0  0  0  0  0  0
  200.7903  140.6324  132.4503 C   0  0  1  0  0  0  0  0  0  0  0  0
  201.8520  141.0112  133.4909 C   0  0  0  0  0  0  0  0  0  0  0  0
  202.9978  140.2465  133.3526 O   0  0  0  0  0  0  0  0  0  0  0  0
  203.1310  139.0684  134.5673 P   0  0  2  0  0  5  0  0  0  0  0  0
  201.3470  139.0972  135.7069 S   0  0  0  0  0  0  0  0  0  0  0  0
  204.2893  139.4799  135.4483 O   0  0  0  0  0  0  0  0  0  0  0  0
  203.3192  137.5264  133.9398 O   0  0  0  0  0  0  0  0  0  0  0  0
  204.5314  137.3647  133.2633 C   0  0  1  0  0  0  0  0  0  0  0  0
  205.1924  136.1318  133.8868 C   0  0  1  0  0  0  0  0  0  0  0  0
  204.7237  135.9073  135.1693 O   0  0  0  0  0  0  0  0  0  0  0  0
  200.4385  141.7718  131.7845 O   0  0  0  0  0  0  0  0  0  0  0  0
  200.7175  141.6376  130.4518 C   0  0  1  0  0  0  0  0  0  0  0  0
  200.9951  142.8983  129.7974 N   0  0  0  0  0  0  0  0  0  0  0  0
  201.8675  143.8418  130.2097 C   0  0  0  0  0  0  0  0  0  0  0  0
  201.8696  144.8845  129.3596 N   0  0  0  0  0  0  0  0  0  0  0  0
  200.9883  144.6264  128.3744 C   0  0  0  0  0  0  0  0  0  0  0  0
  200.4537  143.3873  128.6624 C   0  0  0  0  0  0  0  0  0  0  0  0
  199.5202  142.8846  127.8065 N   0  0  0  0  0  0  0  0  0  0  0  0
  199.1616  143.6030  126.7320 C   0  0  0  0  0  0  0  0  0  0  0  0
  199.6910  144.8135  126.4605 N   0  0  0  0  0  0  0  0  0  0  0  0
  200.6164  145.3666  127.2641 C   0  0  0  0  0  0  0  0  0  0  0  0
  201.1779  146.6429  126.9823 N   0  0  0  0  0  0  0  0  0  0  0  0
  1  2  1  0
  2  3  2  0
  3  4  1  0
  4  5  2  0
  5  6  1  0
  6  7  2  0
  7  8  1  0
  8  9  2  0
  9 10  1  0
 11 10  1  6
 11 12  1  0
 12 13  1  0
 13 14  1  6
 14 15  1  0
 15 16  1  0
 16 17  1  6
 16 18  2  0
 16 19  1  0
 20 19  1  6
 20 21  1  0
 21 22  1  6
 21 23  1  0
 23 24  1  1
 24 25  1  0
 25 26  1  0
 26 27  1  1
 26 28  2  0
 26 29  1  0
 30 29  1  1
 30 31  1  0
 31 32  1  1
 23 33  1  0
 33 34  1  0
 34 35  1  1
 35 36  1  0
 36 37  2  0
 37 38  1  0
 38 39  2  0
 39 40  1  0
 40 41  2  0
 41 42  1  0
 42 43  2  0
 43 44  1  0
  7  2  1  0
 31 11  1  0
 39 35  1  0
 10  6  1  0
 30 13  1  0
 43 38  1  0
 34 20  1  0
M  END
$$$$
