
     RDKit          3D

 44 50  0  0  0  0  0  0  0  0999 V2000
  204.9251  130.3416  136.7202 N   0  0  0  0  0  0  0  0  0  0  0  0
  204.1802  131.0495  135.7376 C   0  0  0  0  0  0  0  0  0  0  0  0
  203.4323  130.3813  134.8316 N   0  0  0  0  0  0  0  0  0  0  0  0
  202.7176  131.0499  133.8894 C   0  0  0  0  0  0  0  0  0  0  0  0
  202.7238  132.3912  133.8188 N   0  0  0  0  0  0  0  0  0  0  0  0
  203.4582  133.1082  134.7049 C   0  0  0  0  0  0  0  0  0  0  0  0
  204.1770  132.4322  135.6528 C   0  0  0  0  0  0  0  0  0  0  0  0
  204.8003  133.3543  136.3865 N   0  0  0  0  0  0  0  0  0  0  0  0
  204.4784  134.5697  135.9087 C   0  0  0  0  0  0  0  0  0  0  0  0
  203.6570  134.4432  134.8782 N   0  0  0  0  0  0  0  0  0  0  0  0
  203.0310  135.4253  134.0298 C   0  0  2  0  0  0  0  0  0  0  0  0
  203.8872  136.4833  133.7088 O   0  0  0  0  0  0  0  0  0  0  0  0
  203.0434  137.3715  133.0642 C   0  0  2  0  0  0  0  0  0  0  0  0
  203.6839  138.7205  133.0231 C   0  0  0  0  0  0  0  0  0  0  0  0
  204.1629  138.9474  131.7184 O   0  0  0  0  0  0  0  0  0  0  0  0
  203.9903  140.5446  131.2571 P   0  0  2  0  0  5  0  0  0  0  0  0
  205.8787  141.4718  131.1382 S   0  0  0  0  0  0  0  0  0  0  0  0
  203.1957  141.2570  132.3352 O   0  0  0  0  0  0  0  0  0  0  0  0
  203.2274  140.7014  129.7453 O   0  0  0  0  0  0  0  0  0  0  0  0
  201.8779  140.7198  129.9505 C   0  0  2  0  0  0  0  0  0  0  0  0
  201.2758  139.3106  130.0497 C   0  0  2  0  0  0  0  0  0  0  0  0
  201.8129  138.5448  129.0235 O   0  0  0  0  0  0  0  0  0  0  0  0
  199.8328  139.6353  129.7272 C   0  0  1  0  0  0  0  0  0  0  0  0
  199.1346  139.8824  131.0706 C   0  0  0  0  0  0  0  0  0  0  0  0
  199.9433  139.5311  132.1382 O   0  0  0  0  0  0  0  0  0  0  0  0
  199.4501  138.0778  132.8632 P   0  0  2  0  0  5  0  0  0  0  0  0
  197.8944  137.2536  131.6875 S   0  0  0  0  0  0  0  0  0  0  0  0
  198.9050  138.4346  134.2279 O   0  0  0  0  0  0  0  0  0  0  0  0
  200.6900  136.9537  132.9421 O   0  0  0  0  0  0  0  0  0  0  0  0
  201.7237  137.3515  133.7945 C   0  0  1  0  0  0  0  0  0  0  0  0
  201.9257  136.1889  134.7708 C   0  0  1  0  0  0  0  0  0  0  0  0
  200.7805  135.4195  134.8769 O   0  0  0  0  0  0  0  0  0  0  0  0
  199.8058  140.8065  129.0253 O   0  0  0  0  0  0  0  0  0  0  0  0
  201.0827  141.2219  128.7628 C   0  0  1  0  0  0  0  0  0  0  0  0
  201.1989  142.6580  128.6270 N   0  0  0  0  0  0  0  0  0  0  0  0
  200.6925  143.5872  129.4645 C   0  0  0  0  0  0  0  0  0  0  0  0
  200.9917  144.8250  129.0306 N   0  0  0  0  0  0  0  0  0  0  0  0
  201.7041  144.7118  127.8933 C   0  0  0  0  0  0  0  0  0  0  0  0
  201.8236  143.3575  127.6570 C   0  0  0  0  0  0  0  0  0  0  0  0
  202.5120  142.9653  126.5483 N   0  0  0  0  0  0  0  0  0  0  0  0
  203.0396  143.8971  125.7405 C   0  0  0  0  0  0  0  0  0  0  0  0
  202.9165  145.2184  125.9816 N   0  0  0  0  0  0  0  0  0  0  0  0
  202.2499  145.6724  127.0576 C   0  0  0  0  0  0  0  0  0  0  0  0
  202.1171  147.0649  127.3164 N   0  0  0  0  0  0  0  0  0  0  0  0
  1  2  1  0
  2  3  2  0
  3  4  1  0
  4  5  2  0
  5  6  1  0
  6  7  2  0
  7  8  1  0
  8  9  2  0
  9 10  1  0
 11 10  1  1
 11 12  1  0
 12 13  1  0
 13 14  1  1
 14 15  1  0
 15 16  1  0
 16 17  1  6
 16 18  2  0
 16 19  1  0
 20 19  1  6
 20 21  1  0
 21 22  1  6
 21 23  1  0
 23 24  1  1
 24 25  1  0
 25 26  1  0
 26 27  1  6
 26 28  2  0
 26 29  1  0
 30 29  1  6
 30 31  1  0
 31 32  1  6
 23 33  1  0
 33 34  1  0
 34 35  1  1
 35 36  1  0
 36 37  2  0
 37 38  1  0
 38 39  2  0
 39 40  1  0
 40 41  2  0
 41 42  1  0
 42 43  2  0
 43 44  1  0
  7  2  1  0
 31 11  1  0
 39 35  1  0
 10  6  1  0
 30 13  1  0
 43 38  1  0
 34 20  1  0
M  END
$$$$
