
     RDKit          3D

 44 50  0  0  0  0  0  0  0  0999 V2000
  124.3331  154.1812  134.3676 N   0  0  0  0  0  0  0  0  0  0  0  0
  124.4695  152.8314  133.9424 C   0  0  0  0  0  0  0  0  0  0  0  0
  123.8750  152.4076  132.8050 N   0  0  0  0  0  0  0  0  0  0  0  0
  124.0002  151.1197  132.3916 C   0  0  0  0  0  0  0  0  0  0  0  0
  124.7138  150.2207  133.0893 N   0  0  0  0  0  0  0  0  0  0  0  0
  125.3299  150.5956  134.2376 C   0  0  0  0  0  0  0  0  0  0  0  0
  125.2020  151.8935  134.6516 C   0  0  0  0  0  0  0  0  0  0  0  0
  125.8913  151.9998  135.7876 N   0  0  0  0  0  0  0  0  0  0  0  0
  126.4327  150.8019  136.0726 C   0  0  0  0  0  0  0  0  0  0  0  0
  126.1019  149.9263  135.1363 N   0  0  0  0  0  0  0  0  0  0  0  0
  126.4220  148.5303  134.9786 C   0  0  2  0  0  0  0  0  0  0  0  0
  127.7913  148.3087  134.8015 O   0  0  0  0  0  0  0  0  0  0  0  0
  127.8427  146.9607  134.4909 C   0  0  2  0  0  0  0  0  0  0  0  0
  129.1639  146.6471  133.8680 C   0  0  0  0  0  0  0  0  0  0  0  0
  129.9605  145.9844  134.8214 O   0  0  0  0  0  0  0  0  0  0  0  0
  130.9133  144.7999  134.1264 P   0  0  2  0  0  5  0  0  0  0  0  0
  132.9382  145.3813  134.1706 S   0  0  0  0  0  0  0  0  0  0  0  0
  130.5048  144.6683  132.6715 O   0  0  0  0  0  0  0  0  0  0  0  0
  130.7739  143.3062  134.9274 O   0  0  0  0  0  0  0  0  0  0  0  0
  129.7172  142.6317  134.3872 C   0  0  2  0  0  0  0  0  0  0  0  0
  128.3750  143.0347  135.0153 C   0  0  2  0  0  0  0  0  0  0  0  0
  128.5442  143.0739  136.3929 O   0  0  0  0  0  0  0  0  0  0  0  0
  127.5546  141.8167  134.6478 C   0  0  1  0  0  0  0  0  0  0  0  0
  126.8738  142.1411  133.3118 C   0  0  0  0  0  0  0  0  0  0  0  0
  127.0292  143.4738  132.9703 O   0  0  0  0  0  0  0  0  0  0  0  0
  125.6010  144.3629  133.1961 P   0  0  2  0  0  5  0  0  0  0  0  0
  124.1840  143.0998  134.1334 S   0  0  0  0  0  0  0  0  0  0  0  0
  125.0985  144.7371  131.8196 O   0  0  0  0  0  0  0  0  0  0  0  0
  125.8327  145.6995  134.1792 O   0  0  0  0  0  0  0  0  0  0  0  0
  126.6663  146.6582  133.5966 C   0  0  1  0  0  0  0  0  0  0  0  0
  125.8858  147.9747  133.6528 C   0  0  1  0  0  0  0  0  0  0  0  0
  124.5231  147.7460  133.7288 O   0  0  0  0  0  0  0  0  0  0  0  0
  128.4109  140.7746  134.4333 O   0  0  0  0  0  0  0  0  0  0  0  0
  129.6916  141.1558  134.7278 C   0  0  1  0  0  0  0  0  0  0  0  0
  130.6906  140.4292  133.9738 N   0  0  0  0  0  0  0  0  0  0  0  0
  130.6555  140.1517  132.6535 C   0  0  0  0  0  0  0  0  0  0  0  0
  131.7498  139.4596  132.2887 N   0  0  0  0  0  0  0  0  0  0  0  0
  132.5166  139.2779  133.3809 C   0  0  0  0  0  0  0  0  0  0  0  0
  131.8429  139.8872  134.4197 C   0  0  0  0  0  0  0  0  0  0  0  0
  132.4139  139.8471  135.6563 N   0  0  0  0  0  0  0  0  0  0  0  0
  133.5922  139.2258  135.8145 C   0  0  0  0  0  0  0  0  0  0  0  0
  134.2418  138.6335  134.7915 N   0  0  0  0  0  0  0  0  0  0  0  0
  133.7334  138.6368  133.5467 C   0  0  0  0  0  0  0  0  0  0  0  0
  134.4145  138.0136  132.4642 N   0  0  0  0  0  0  0  0  0  0  0  0
  1  2  1  0
  2  3  2  0
  3  4  1  0
  4  5  2  0
  5  6  1  0
  6  7  2  0
  7  8  1  0
  8  9  2  0
  9 10  1  0
 11 10  1  6
 11 12  1  0
 12 13  1  0
 13 14  1  6
 14 15  1  0
 15 16  1  0
 16 17  1  6
 16 18  2  0
 16 19  1  0
 20 19  1  1
 20 21  1  0
 21 22  1  1
 21 23  1  0
 23 24  1  6
 24 25  1  0
 25 26  1  0
 26 27  1  1
 26 28  2  0
 26 29  1  0
 30 29  1  1
 30 31  1  0
 31 32  1  1
 23 33  1  0
 33 34  1  0
 34 35  1  6
 35 36  1  0
 36 37  2  0
 37 38  1  0
 38 39  2  0
 39 40  1  0
 40 41  2  0
 41 42  1  0
 42 43  2  0
 43 44  1  0
  7  2  1  0
 31 11  1  0
 39 35  1  0
 10  6  1  0
 30 13  1  0
 43 38  1  0
 34 20  1  0
M  END
$$$$
