
     RDKit          3D

 44 50  0  0  0  0  0  0  0  0999 V2000
  126.5611  136.7254  134.7221 N   0  0  0  0  0  0  0  0  0  0  0  0
  127.2086  137.9431  134.3768 C   0  0  0  0  0  0  0  0  0  0  0  0
  128.1341  137.9720  133.3923 N   0  0  0  0  0  0  0  0  0  0  0  0
  128.7576  139.1311  133.0560 C   0  0  0  0  0  0  0  0  0  0  0  0
  128.4832  140.2874  133.6819 N   0  0  0  0  0  0  0  0  0  0  0  0
  127.5621  140.3119  134.6767 C   0  0  0  0  0  0  0  0  0  0  0  0
  126.9358  139.1429  135.0134 C   0  0  0  0  0  0  0  0  0  0  0  0
  126.0915  139.4352  136.0027 N   0  0  0  0  0  0  0  0  0  0  0  0
  126.1897  140.7489  136.2741 C   0  0  0  0  0  0  0  0  0  0  0  0
  127.0850  141.3064  135.4737 N   0  0  0  0  0  0  0  0  0  0  0  0
  127.5518  142.6649  135.3626 C   0  0  2  0  0  0  0  0  0  0  0  0
  126.5080  143.5810  135.1984 O   0  0  0  0  0  0  0  0  0  0  0  0
  127.1798  144.7616  134.9318 C   0  0  2  0  0  0  0  0  0  0  0  0
  126.2315  145.7436  134.3249 C   0  0  0  0  0  0  0  0  0  0  0  0
  125.8916  146.6984  135.3026 O   0  0  0  0  0  0  0  0  0  0  0  0
  125.7167  148.2272  134.6503 P   0  0  2  0  0  5  0  0  0  0  0  0
  123.6894  148.8011  134.6841 S   0  0  0  0  0  0  0  0  0  0  0  0
  126.1528  148.1665  133.1986 O   0  0  0  0  0  0  0  0  0  0  0  0
  126.6124  149.3978  135.4986 O   0  0  0  0  0  0  0  0  0  0  0  0
  127.8731  149.4288  134.9760 C   0  0  2  0  0  0  0  0  0  0  0  0
  128.7920  148.3597  135.5852 C   0  0  2  0  0  0  0  0  0  0  0  0
  128.6090  148.3748  136.9615 O   0  0  0  0  0  0  0  0  0  0  0  0
  130.1364  148.9715  135.2538 C   0  0  1  0  0  0  0  0  0  0  0  0
  130.5616  148.3764  133.9053 C   0  0  0  0  0  0  0  0  0  0  0  0
  129.7311  147.3373  133.5214 O   0  0  0  0  0  0  0  0  0  0  0  0
  130.4720  145.8222  133.7124 P   0  0  2  0  0  5  0  0  0  0  0  0
  132.3293  146.1187  134.6841 S   0  0  0  0  0  0  0  0  0  0  0  0
  130.7201  145.2802  132.3225 O   0  0  0  0  0  0  0  0  0  0  0  0
  129.5567  144.7806  134.6527 O   0  0  0  0  0  0  0  0  0  0  0  0
  128.3507  144.4241  134.0428 C   0  0  1  0  0  0  0  0  0  0  0  0
  128.3183  142.8929  134.0532 C   0  0  1  0  0  0  0  0  0  0  0  0
  129.5954  142.3657  134.1309 O   0  0  0  0  0  0  0  0  0  0  0  0
  129.9618  150.3144  135.0768 O   0  0  0  0  0  0  0  0  0  0  0  0
  128.6690  150.6580  135.3641 C   0  0  1  0  0  0  0  0  0  0  0  0
  128.2140  151.8244  134.6382 N   0  0  0  0  0  0  0  0  0  0  0  0
  128.9884  152.7174  133.9870 C   0  0  0  0  0  0  0  0  0  0  0  0
  128.2304  153.6753  133.4236 N   0  0  0  0  0  0  0  0  0  0  0  0
  126.9402  153.4118  133.7061 C   0  0  0  0  0  0  0  0  0  0  0  0
  126.9483  152.2574  134.4621 C   0  0  0  0  0  0  0  0  0  0  0  0
  125.7492  151.7676  134.8851 N   0  0  0  0  0  0  0  0  0  0  0  0
  124.6227  152.4170  134.5554 C   0  0  0  0  0  0  0  0  0  0  0  0
  124.6269  153.5448  133.8157 N   0  0  0  0  0  0  0  0  0  0  0  0
  125.7754  154.0807  133.3667 C   0  0  0  0  0  0  0  0  0  0  0  0
  125.7854  155.2701  132.5863 N   0  0  0  0  0  0  0  0  0  0  0  0
  1  2  1  0
  2  3  2  0
  3  4  1  0
  4  5  2  0
  5  6  1  0
  6  7  2  0
  7  8  1  0
  8  9  2  0
  9 10  1  0
 11 10  1  6
 11 12  1  0
 12 13  1  0
 13 14  1  6
 14 15  1  0
 15 16  1  0
 16 17  1  6
 16 18  2  0
 16 19  1  0
 20 19  1  1
 20 21  1  0
 21 22  1  1
 21 23  1  0
 23 24  1  6
 24 25  1  0
 25 26  1  0
 26 27  1  1
 26 28  2  0
 26 29  1  0
 30 29  1  1
 30 31  1  0
 31 32  1  1
 23 33  1  0
 33 34  1  0
 34 35  1  6
 35 36  1  0
 36 37  2  0
 37 38  1  0
 38 39  2  0
 39 40  1  0
 40 41  2  0
 41 42  1  0
 42 43  2  0
 43 44  1  0
  7  2  1  0
 31 11  1  0
 39 35  1  0
 10  6  1  0
 30 13  1  0
 43 38  1  0
 34 20  1  0
M  END
$$$$
