
     RDKit          3D

 29 33  0  0  0  0  0  0  0  0999 V2000
  214.2851  154.8013  125.7009 C   0  0  2  0  0  0  0  0  0  0  0  0
  215.1610  153.5989  125.6634 C   0  0  0  0  0  0  0  0  0  0  0  0
  214.9931  153.0666  127.0722 C   0  0  0  0  0  0  0  0  0  0  0  0
  213.5749  153.4704  127.5070 C   0  0  2  0  0  0  0  0  0  0  0  0
  213.6315  154.0649  128.8519 C   0  0  0  0  0  0  0  0  0  0  0  0
  212.4641  153.6283  129.7470 C   0  0  0  0  0  0  0  0  0  0  0  0
  212.5199  152.1326  129.9853 C   0  0  0  0  0  0  0  0  0  0  0  0
  213.5789  151.7715  131.0038 C   0  0  0  0  0  0  0  0  0  0  0  0
  211.1662  151.6498  130.4671 C   0  0  0  0  0  0  0  0  0  0  0  0
  212.7892  151.4931  128.6833 C   0  0  0  0  0  0  0  0  0  0  0  0
  212.9681  150.2559  128.6172 O   0  0  0  0  0  0  0  0  0  0  0  0
  212.8398  152.2648  127.5564 O   0  0  0  0  0  0  0  0  0  0  0  0
  213.0161  154.3213  126.4230 C   0  0  2  0  0  0  0  0  0  0  0  0
  212.1961  153.4688  125.4802 C   0  0  0  0  0  0  0  0  0  0  0  0
  212.3259  155.5603  126.8550 C   0  0  0  0  0  0  0  0  0  0  0  0
  211.9143  156.3519  125.6093 C   0  0  0  0  0  0  0  0  0  0  0  0
  213.0408  156.5710  124.6665 C   0  0  2  0  0  0  0  0  0  0  0  0
  212.5033  157.0993  123.3976 C   0  0  0  0  0  0  0  0  0  0  0  0
  211.2515  157.6676  123.3517 C   0  0  0  0  0  0  0  0  0  0  0  0
  210.7454  158.1676  122.1450 C   0  0  0  0  0  0  0  0  0  0  0  0
  211.5239  158.0815  120.9984 C   0  0  0  0  0  0  0  0  0  0  0  0
  212.7621  157.5096  121.0868 C   0  0  0  0  0  0  0  0  0  0  0  0
  213.2883  157.0058  122.2709 C   0  0  0  0  0  0  0  0  0  0  0  0
  214.6367  156.4074  122.2609 C   0  0  0  0  0  0  0  0  0  0  0  0
  214.9441  155.5499  123.4272 C   0  0  0  0  0  0  0  0  0  0  0  0
  213.8320  155.3026  124.3673 C   0  0  1  0  0  0  0  0  0  0  0  0
  211.0011  158.6050  119.7212 C   0  0  0  0  0  0  0  0  0  0  0  0
  211.8874  158.6245  118.6074 N   0  0  0  0  0  0  0  0  0  0  0  0
  209.8411  159.0171  119.5968 O   0  0  0  0  0  0  0  0  0  0  0  0
  1  2  1  6
  2  3  1  0
  4  3  1  6
  4  5  1  0
  5  6  1  0
  6  7  1  0
  7  8  1  0
  7  9  1  0
  7 10  1  0
 10 11  2  0
 10 12  1  0
  4 13  1  0
 13 14  1  6
 13 15  1  0
 15 16  1  0
 17 16  1  1
 17 18  1  0
 18 19  2  0
 19 20  1  0
 20 21  2  0
 21 22  1  0
 22 23  2  0
 23 24  1  0
 24 25  1  0
 26 25  1  6
 21 27  1  0
 27 28  1  0
 27 29  2  0
 13  1  1  0
 26 17  1  0
 26  1  1  0
 12  4  1  0
 23 18  1  0
M  END
$$$$
