
     RDKit          3D

 29 33  0  0  0  0  0  0  0  0999 V2000
  108.3223  166.6412  157.3256 C   0  0  2  0  0  0  0  0  0  0  0  0
  108.3059  167.4053  156.0488 C   0  0  0  0  0  0  0  0  0  0  0  0
  109.0244  166.4463  155.1210 C   0  0  0  0  0  0  0  0  0  0  0  0
  108.7083  165.0370  155.6477 C   0  0  2  0  0  0  0  0  0  0  0  0
  109.9546  164.2587  155.7264 C   0  0  0  0  0  0  0  0  0  0  0  0
  109.7787  162.8031  155.2736 C   0  0  0  0  0  0  0  0  0  0  0  0
  109.3875  162.7552  153.8102 C   0  0  0  0  0  0  0  0  0  0  0  0
  110.5765  163.0066  152.9088 C   0  0  0  0  0  0  0  0  0  0  0  0
  108.7887  161.3990  153.4944 C   0  0  0  0  0  0  0  0  0  0  0  0
  108.3367  163.7704  153.6060 C   0  0  0  0  0  0  0  0  0  0  0  0
  107.8960  163.9945  152.4559 O   0  0  0  0  0  0  0  0  0  0  0  0
  107.8530  164.4589  154.6830 O   0  0  0  0  0  0  0  0  0  0  0  0
  107.9465  165.2091  156.9132 C   0  0  2  0  0  0  0  0  0  0  0  0
  106.4630  165.1442  156.6253 C   0  0  0  0  0  0  0  0  0  0  0  0
  108.3682  164.3567  158.0506 C   0  0  0  0  0  0  0  0  0  0  0  0
  107.5475  164.7452  159.2848 C   0  0  0  0  0  0  0  0  0  0  0  0
  107.5792  166.2038  159.5631 C   0  0  2  0  0  0  0  0  0  0  0  0
  106.5664  166.5142  160.5907 C   0  0  0  0  0  0  0  0  0  0  0  0
  106.0593  165.5199  161.3948 C   0  0  0  0  0  0  0  0  0  0  0  0
  105.0980  165.8193  162.3688 C   0  0  0  0  0  0  0  0  0  0  0  0
  104.6654  167.1311  162.5106 C   0  0  0  0  0  0  0  0  0  0  0  0
  105.1943  168.0891  161.6918 C   0  0  0  0  0  0  0  0  0  0  0  0
  106.1489  167.8195  160.7176 C   0  0  0  0  0  0  0  0  0  0  0  0
  106.6572  168.9255  159.8841 C   0  0  0  0  0  0  0  0  0  0  0  0
  107.3357  168.5032  158.6386 C   0  0  0  0  0  0  0  0  0  0  0  0
  107.2988  167.0586  158.3323 C   0  0  1  0  0  0  0  0  0  0  0  0
  103.6528  167.4582  163.5335 C   0  0  0  0  0  0  0  0  0  0  0  0
  103.7905  168.6971  164.2212 N   0  0  0  0  0  0  0  0  0  0  0  0
  102.7108  166.7023  163.8021 O   0  0  0  0  0  0  0  0  0  0  0  0
  1  2  1  6
  2  3  1  0
  4  3  1  6
  4  5  1  0
  5  6  1  0
  6  7  1  0
  7  8  1  0
  7  9  1  0
  7 10  1  0
 10 11  2  0
 10 12  1  0
  4 13  1  0
 13 14  1  6
 13 15  1  0
 15 16  1  0
 17 16  1  6
 17 18  1  0
 18 19  2  0
 19 20  1  0
 20 21  2  0
 21 22  1  0
 22 23  2  0
 23 24  1  0
 24 25  1  0
 26 25  1  1
 21 27  1  0
 27 28  1  0
 27 29  2  0
 13  1  1  0
 26 17  1  0
 26  1  1  0
 12  4  1  0
 23 18  1  0
M  END
$$$$
