
     RDKit          3D

 29 33  0  0  0  0  0  0  0  0999 V2000
  191.0179  160.8152  119.8474 C   0  0  2  0  0  0  0  0  0  0  0  0
  192.0048  161.1812  118.7955 C   0  0  0  0  0  0  0  0  0  0  0  0
  191.5847  162.6020  118.4773 C   0  0  0  0  0  0  0  0  0  0  0  0
  190.9965  163.1674  119.7803 C   0  0  2  0  0  0  0  0  0  0  0  0
  189.7141  163.8265  119.4868 C   0  0  0  0  0  0  0  0  0  0  0  0
  189.5227  165.1339  120.2672 C   0  0  0  0  0  0  0  0  0  0  0  0
  190.5763  166.1442  119.8595 C   0  0  0  0  0  0  0  0  0  0  0  0
  190.2570  166.7698  118.5193 C   0  0  0  0  0  0  0  0  0  0  0  0
  190.6693  167.2271  120.9162 C   0  0  0  0  0  0  0  0  0  0  0  0
  191.8699  165.4358  119.8251 C   0  0  0  0  0  0  0  0  0  0  0  0
  192.8998  166.0292  119.4323 O   0  0  0  0  0  0  0  0  0  0  0  0
  191.9291  164.1306  120.2263 O   0  0  0  0  0  0  0  0  0  0  0  0
  190.9648  162.0500  120.7610 C   0  0  2  0  0  0  0  0  0  0  0  0
  192.2100  162.0918  121.6187 C   0  0  0  0  0  0  0  0  0  0  0  0
  189.7123  161.8999  121.5402 C   0  0  0  0  0  0  0  0  0  0  0  0
  189.8255  160.6458  122.4131 C   0  0  0  0  0  0  0  0  0  0  0  0
  190.2194  159.4393  121.6416 C   0  0  2  0  0  0  0  0  0  0  0  0
  190.5567  158.3584  122.5882 C   0  0  0  0  0  0  0  0  0  0  0  0
  190.1259  158.4129  123.8934 C   0  0  0  0  0  0  0  0  0  0  0  0
  190.4487  157.3847  124.7884 C   0  0  0  0  0  0  0  0  0  0  0  0
  191.2079  156.3121  124.3399 C   0  0  0  0  0  0  0  0  0  0  0  0
  191.6160  156.2961  123.0356 C   0  0  0  0  0  0  0  0  0  0  0  0
  191.3099  157.3028  122.1269 C   0  0  0  0  0  0  0  0  0  0  0  0
  191.7986  157.1915  120.7394 C   0  0  0  0  0  0  0  0  0  0  0  0
  191.7855  158.4574  119.9730 C   0  0  0  0  0  0  0  0  0  0  0  0
  191.4159  159.6731  120.7262 C   0  0  1  0  0  0  0  0  0  0  0  0
  191.5541  155.2228  125.2739 C   0  0  0  0  0  0  0  0  0  0  0  0
  192.2395  154.0943  124.7418 N   0  0  0  0  0  0  0  0  0  0  0  0
  191.2709  155.2642  126.4777 O   0  0  0  0  0  0  0  0  0  0  0  0
  1  2  1  6
  2  3  1  0
  4  3  1  6
  4  5  1  0
  5  6  1  0
  6  7  1  0
  7  8  1  0
  7  9  1  0
  7 10  1  0
 10 11  2  0
 10 12  1  0
  4 13  1  0
 13 14  1  1
 13 15  1  0
 15 16  1  0
 17 16  1  1
 17 18  1  0
 18 19  2  0
 19 20  1  0
 20 21  2  0
 21 22  1  0
 22 23  2  0
 23 24  1  0
 24 25  1  0
 26 25  1  6
 21 27  1  0
 27 28  1  0
 27 29  2  0
 13  1  1  0
 26 17  1  0
 26  1  1  0
 12  4  1  0
 23 18  1  0
M  END
$$$$
