
     RDKit          3D

 29 33  0  0  0  0  0  0  0  0999 V2000
  149.2527  176.1559  152.2503 C   0  0  2  0  0  0  0  0  0  0  0  0
  149.8388  177.5187  152.1329 C   0  0  0  0  0  0  0  0  0  0  0  0
  150.9134  177.2894  151.0892 C   0  0  0  0  0  0  0  0  0  0  0  0
  150.3906  176.1569  150.1905 C   0  0  2  0  0  0  0  0  0  0  0  0
  151.4544  175.1579  150.0021 C   0  0  0  0  0  0  0  0  0  0  0  0
  151.5179  174.6171  148.5674 C   0  0  0  0  0  0  0  0  0  0  0  0
  151.8645  175.7340  147.6034 C   0  0  0  0  0  0  0  0  0  0  0  0
  153.3374  176.0761  147.6560 C   0  0  0  0  0  0  0  0  0  0  0  0
  151.4901  175.3163  146.1952 C   0  0  0  0  0  0  0  0  0  0  0  0
  151.0315  176.8967  147.9650 C   0  0  0  0  0  0  0  0  0  0  0  0
  151.1854  177.9877  147.3709 O   0  0  0  0  0  0  0  0  0  0  0  0
  150.0941  176.7676  148.9513 O   0  0  0  0  0  0  0  0  0  0  0  0
  149.1208  175.6753  150.7965 C   0  0  2  0  0  0  0  0  0  0  0  0
  147.9494  176.3740  150.1426 C   0  0  0  0  0  0  0  0  0  0  0  0
  148.9580  174.2046  150.8895 C   0  0  0  0  0  0  0  0  0  0  0  0
  147.6504  173.9021  151.6288 C   0  0  0  0  0  0  0  0  0  0  0  0
  147.5423  174.6172  152.9260 C   0  0  2  0  0  0  0  0  0  0  0  0
  146.1632  174.4774  153.4328 C   0  0  0  0  0  0  0  0  0  0  0  0
  145.3397  173.4855  152.9531 C   0  0  0  0  0  0  0  0  0  0  0  0
  144.0313  173.3568  153.4369 C   0  0  0  0  0  0  0  0  0  0  0  0
  143.5788  174.2429  154.4055 C   0  0  0  0  0  0  0  0  0  0  0  0
  144.4287  175.2141  154.8555 C   0  0  0  0  0  0  0  0  0  0  0  0
  145.7311  175.3641  154.3926 C   0  0  0  0  0  0  0  0  0  0  0  0
  146.5693  176.4460  154.9433 C   0  0  0  0  0  0  0  0  0  0  0  0
  147.7570  176.7870  154.1289 C   0  0  0  0  0  0  0  0  0  0  0  0
  147.8737  176.1019  152.8255 C   0  0  1  0  0  0  0  0  0  0  0  0
  142.2022  174.1168  154.9228 C   0  0  0  0  0  0  0  0  0  0  0  0
  141.9244  174.6878  156.1969 N   0  0  0  0  0  0  0  0  0  0  0  0
  141.3055  173.5419  154.2932 O   0  0  0  0  0  0  0  0  0  0  0  0
  1  2  1  6
  2  3  1  0
  4  3  1  1
  4  5  1  0
  5  6  1  0
  6  7  1  0
  7  8  1  0
  7  9  1  0
  7 10  1  0
 10 11  2  0
 10 12  1  0
  4 13  1  0
 13 14  1  6
 13 15  1  0
 15 16  1  0
 17 16  1  6
 17 18  1  0
 18 19  2  0
 19 20  1  0
 20 21  2  0
 21 22  1  0
 22 23  2  0
 23 24  1  0
 24 25  1  0
 26 25  1  1
 21 27  1  0
 27 28  1  0
 27 29  2  0
 13  1  1  0
 26 17  1  0
 26  1  1  0
 12  4  1  0
 23 18  1  0
M  END
$$$$
