
     RDKit          3D

 29 33  0  0  0  0  0  0  0  0999 V2000
  201.7228  136.7897  132.7198 C   0  0  2  0  0  0  0  0  0  0  0  0
  200.5147  136.4767  131.9092 C   0  0  0  0  0  0  0  0  0  0  0  0
  199.9941  137.8671  131.6054 C   0  0  0  0  0  0  0  0  0  0  0  0
  201.2317  138.7780  131.5609 C   0  0  2  0  0  0  0  0  0  0  0  0
  200.9737  139.9849  132.3623 C   0  0  0  0  0  0  0  0  0  0  0  0
  201.5199  141.2622  131.7104 C   0  0  0  0  0  0  0  0  0  0  0  0
  200.8159  141.5180  130.3929 C   0  0  0  0  0  0  0  0  0  0  0  0
  199.4305  142.0880  130.6049 C   0  0  0  0  0  0  0  0  0  0  0  0
  201.6398  142.4815  129.5619 C   0  0  0  0  0  0  0  0  0  0  0  0
  200.7613  140.2328  129.6706 C   0  0  0  0  0  0  0  0  0  0  0  0
  200.1503  140.1510  128.5810 O   0  0  0  0  0  0  0  0  0  0  0  0
  201.3837  139.1387  130.2032 O   0  0  0  0  0  0  0  0  0  0  0  0
  202.3963  137.9452  131.9625 C   0  0  2  0  0  0  0  0  0  0  0  0
  203.0818  137.4023  130.7282 C   0  0  0  0  0  0  0  0  0  0  0  0
  203.3296  138.5550  132.9399 C   0  0  0  0  0  0  0  0  0  0  0  0
  204.3971  137.5200  133.3098 C   0  0  0  0  0  0  0  0  0  0  0  0
  203.8177  136.2215  133.7388 C   0  0  2  0  0  0  0  0  0  0  0  0
  204.8996  135.2208  133.8183 C   0  0  0  0  0  0  0  0  0  0  0  0
  206.2141  135.6180  133.8995 C   0  0  0  0  0  0  0  0  0  0  0  0
  207.2377  134.6646  133.9747 C   0  0  0  0  0  0  0  0  0  0  0  0
  206.9071  133.3159  133.9662 C   0  0  0  0  0  0  0  0  0  0  0  0
  205.5891  132.9635  133.8844 C   0  0  0  0  0  0  0  0  0  0  0  0
  204.5540  133.8886  133.8087 C   0  0  0  0  0  0  0  0  0  0  0  0
  203.1629  133.4052  133.7235 C   0  0  0  0  0  0  0  0  0  0  0  0
  202.1857  134.4072  133.2429 C   0  0  0  0  0  0  0  0  0  0  0  0
  202.7427  135.6989  132.7925 C   0  0  1  0  0  0  0  0  0  0  0  0
  207.9772  132.3025  134.0450 C   0  0  0  0  0  0  0  0  0  0  0  0
  207.5852  130.9342  134.0736 N   0  0  0  0  0  0  0  0  0  0  0  0
  209.1766  132.6039  134.0858 O   0  0  0  0  0  0  0  0  0  0  0  0
  1  2  1  6
  2  3  1  0
  4  3  1  6
  4  5  1  0
  5  6  1  0
  6  7  1  0
  7  8  1  0
  7  9  1  0
  7 10  1  0
 10 11  2  0
 10 12  1  0
  4 13  1  0
 13 14  1  6
 13 15  1  0
 15 16  1  0
 17 16  1  6
 17 18  1  0
 18 19  2  0
 19 20  1  0
 20 21  2  0
 21 22  1  0
 22 23  2  0
 23 24  1  0
 24 25  1  0
 26 25  1  1
 21 27  1  0
 27 28  1  0
 27 29  2  0
 13  1  1  0
 26 17  1  0
 26  1  1  0
 12  4  1  0
 23 18  1  0
M  END
$$$$
