
     RDKit          3D

 29 33  0  0  0  0  0  0  0  0999 V2000
  190.2419  160.3684  123.0964 C   0  0  2  0  0  0  0  0  0  0  0  0
  189.3893  159.9480  124.2413 C   0  0  0  0  0  0  0  0  0  0  0  0
  188.5353  161.1834  124.4435 C   0  0  0  0  0  0  0  0  0  0  0  0
  188.3984  161.8305  123.0556 C   0  0  2  0  0  0  0  0  0  0  0  0
  188.6727  163.2720  123.1642 C   0  0  0  0  0  0  0  0  0  0  0  0
  187.7266  164.1257  122.3092 C   0  0  0  0  0  0  0  0  0  0  0  0
  186.2995  163.9684  122.7944 C   0  0  0  0  0  0  0  0  0  0  0  0
  186.0515  164.7634  124.0576 C   0  0  0  0  0  0  0  0  0  0  0  0
  185.3464  164.4287  121.7093 C   0  0  0  0  0  0  0  0  0  0  0  0
  186.0697  162.5278  123.0146 C   0  0  0  0  0  0  0  0  0  0  0  0
  184.9860  162.1326  123.5008 O   0  0  0  0  0  0  0  0  0  0  0  0
  187.0498  161.6352  122.6819 O   0  0  0  0  0  0  0  0  0  0  0  0
  189.2635  161.0533  122.1289 C   0  0  2  0  0  0  0  0  0  0  0  0
  188.4363  160.0004  121.4252 C   0  0  0  0  0  0  0  0  0  0  0  0
  190.1182  161.8465  121.2132 C   0  0  0  0  0  0  0  0  0  0  0  0
  191.0069  160.8854  120.4167 C   0  0  0  0  0  0  0  0  0  0  0  0
  191.7491  159.9341  121.2827 C   0  0  2  0  0  0  0  0  0  0  0  0
  192.3610  158.8946  120.4323 C   0  0  0  0  0  0  0  0  0  0  0  0
  192.5314  159.1061  119.0838 C   0  0  0  0  0  0  0  0  0  0  0  0
  193.1127  158.1165  118.2805 C   0  0  0  0  0  0  0  0  0  0  0  0
  193.5133  156.9218  118.8637 C   0  0  0  0  0  0  0  0  0  0  0  0
  193.3262  156.7516  120.2068 C   0  0  0  0  0  0  0  0  0  0  0  0
  192.7523  157.7166  121.0267 C   0  0  0  0  0  0  0  0  0  0  0  0
  192.5945  157.4350  122.4662 C   0  0  0  0  0  0  0  0  0  0  0  0
  191.6313  158.3120  123.1685 C   0  0  0  0  0  0  0  0  0  0  0  0
  190.8676  159.2523  122.3232 C   0  0  1  0  0  0  0  0  0  0  0  0
  194.1269  155.8719  118.0272 C   0  0  0  0  0  0  0  0  0  0  0  0
  194.4242  154.6265  118.6494 N   0  0  0  0  0  0  0  0  0  0  0  0
  194.3832  156.0421  116.8287 O   0  0  0  0  0  0  0  0  0  0  0  0
  1  2  1  1
  2  3  1  0
  4  3  1  1
  4  5  1  0
  5  6  1  0
  6  7  1  0
  7  8  1  0
  7  9  1  0
  7 10  1  0
 10 11  2  0
 10 12  1  0
  4 13  1  0
 13 14  1  6
 13 15  1  0
 15 16  1  0
 17 16  1  6
 17 18  1  0
 18 19  2  0
 19 20  1  0
 20 21  2  0
 21 22  1  0
 22 23  2  0
 23 24  1  0
 24 25  1  0
 26 25  1  1
 21 27  1  0
 27 28  1  0
 27 29  2  0
 13  1  1  0
 26 17  1  0
 26  1  1  0
 12  4  1  0
 23 18  1  0
M  END
$$$$
