
     RDKit          3D

 29 33  0  0  0  0  0  0  0  0999 V2000
  146.5472  166.7103  131.7699 C   0  0  2  0  0  0  0  0  0  0  0  0
  146.1171  167.0877  133.1436 C   0  0  0  0  0  0  0  0  0  0  0  0
  145.9969  165.7272  133.8001 C   0  0  0  0  0  0  0  0  0  0  0  0
  147.0319  164.8310  133.1007 C   0  0  2  0  0  0  0  0  0  0  0  0
  146.3973  163.5558  132.7314 C   0  0  0  0  0  0  0  0  0  0  0  0
  147.3113  162.3451  132.9635 C   0  0  0  0  0  0  0  0  0  0  0  0
  147.6266  162.2043  134.4392 C   0  0  0  0  0  0  0  0  0  0  0  0
  146.4627  161.6097  135.2016 C   0  0  0  0  0  0  0  0  0  0  0  0
  148.8486  161.3239  134.6100 C   0  0  0  0  0  0  0  0  0  0  0  0
  147.9659  163.5488  134.9431 C   0  0  0  0  0  0  0  0  0  0  0  0
  148.1864  163.7244  136.1628 O   0  0  0  0  0  0  0  0  0  0  0  0
  148.0365  164.5943  134.0656 O   0  0  0  0  0  0  0  0  0  0  0  0
  147.6187  165.6312  131.9931 C   0  0  2  0  0  0  0  0  0  0  0  0
  148.8985  166.2863  132.4631 C   0  0  0  0  0  0  0  0  0  0  0  0
  147.7498  164.9416  130.6872 C   0  0  0  0  0  0  0  0  0  0  0  0
  148.2697  165.9454  129.6530 C   0  0  0  0  0  0  0  0  0  0  0  0
  147.4711  167.1970  129.6113 C   0  0  2  0  0  0  0  0  0  0  0  0
  148.1893  168.1926  128.7922 C   0  0  0  0  0  0  0  0  0  0  0  0
  149.1714  167.7973  127.9139 C   0  0  0  0  0  0  0  0  0  0  0  0
  149.8506  168.7460  127.1386 C   0  0  0  0  0  0  0  0  0  0  0  0
  149.5189  170.0880  127.2691 C   0  0  0  0  0  0  0  0  0  0  0  0
  148.5372  170.4388  128.1529 C   0  0  0  0  0  0  0  0  0  0  0  0
  147.8478  169.5183  128.9341 C   0  0  0  0  0  0  0  0  0  0  0  0
  146.8040  169.9995  129.8590 C   0  0  0  0  0  0  0  0  0  0  0  0
  146.4220  169.0390  130.9179 C   0  0  0  0  0  0  0  0  0  0  0  0
  147.2167  167.7960  130.9899 C   0  0  1  0  0  0  0  0  0  0  0  0
  150.2278  171.0965  126.4572 C   0  0  0  0  0  0  0  0  0  0  0  0
  149.6663  172.4032  126.3961 N   0  0  0  0  0  0  0  0  0  0  0  0
  151.2716  170.8418  125.8437 O   0  0  0  0  0  0  0  0  0  0  0  0
  1  2  1  1
  2  3  1  0
  4  3  1  1
  4  5  1  0
  5  6  1  0
  6  7  1  0
  7  8  1  0
  7  9  1  0
  7 10  1  0
 10 11  2  0
 10 12  1  0
  4 13  1  0
 13 14  1  1
 13 15  1  0
 15 16  1  0
 17 16  1  1
 17 18  1  0
 18 19  2  0
 19 20  1  0
 20 21  2  0
 21 22  1  0
 22 23  2  0
 23 24  1  0
 24 25  1  0
 26 25  1  6
 21 27  1  0
 27 28  1  0
 27 29  2  0
 13  1  1  0
 26 17  1  0
 26  1  1  0
 12  4  1  0
 23 18  1  0
M  END
$$$$
