
     RDKit          3D

 29 33  0  0  0  0  0  0  0  0999 V2000
  187.8346  177.9515  131.8839 C   0  0  2  0  0  0  0  0  0  0  0  0
  187.7119  176.5336  132.3185 C   0  0  0  0  0  0  0  0  0  0  0  0
  186.5905  176.6313  133.3331 C   0  0  0  0  0  0  0  0  0  0  0  0
  185.7015  177.7950  132.8651 C   0  0  2  0  0  0  0  0  0  0  0  0
  185.4140  178.6752  134.0087 C   0  0  0  0  0  0  0  0  0  0  0  0
  183.9650  179.1800  134.0238 C   0  0  0  0  0  0  0  0  0  0  0  0
  183.0082  178.0157  134.1850 C   0  0  0  0  0  0  0  0  0  0  0  0
  182.9672  177.5243  135.6155 C   0  0  0  0  0  0  0  0  0  0  0  0
  181.6192  178.4437  133.7550 C   0  0  0  0  0  0  0  0  0  0  0  0
  183.4566  176.9520  133.2662 C   0  0  0  0  0  0  0  0  0  0  0  0
  182.8815  175.8401  133.2654 O   0  0  0  0  0  0  0  0  0  0  0  0
  184.5020  177.1954  132.4200 O   0  0  0  0  0  0  0  0  0  0  0  0
  186.3815  178.4162  131.6976 C   0  0  2  0  0  0  0  0  0  0  0  0
  185.8288  177.8302  130.4173 C   0  0  0  0  0  0  0  0  0  0  0  0
  186.4478  179.8974  131.6923 C   0  0  0  0  0  0  0  0  0  0  0  0
  187.2681  180.3468  130.4786 C   0  0  0  0  0  0  0  0  0  0  0  0
  188.5877  179.6708  130.3916 C   0  0  2  0  0  0  0  0  0  0  0  0
  189.1852  179.9615  129.0738 C   0  0  0  0  0  0  0  0  0  0  0  0
  188.7385  181.0241  128.3231 C   0  0  0  0  0  0  0  0  0  0  0  0
  189.3086  181.2961  127.0728 C   0  0  0  0  0  0  0  0  0  0  0  0
  190.3287  180.4795  126.6031 C   0  0  0  0  0  0  0  0  0  0  0  0
  190.7434  179.4342  127.3799 C   0  0  0  0  0  0  0  0  0  0  0  0
  190.1953  179.1420  128.6237 C   0  0  0  0  0  0  0  0  0  0  0  0
  190.7140  177.9897  129.3849 C   0  0  0  0  0  0  0  0  0  0  0  0
  189.8281  177.5130  130.4703 C   0  0  0  0  0  0  0  0  0  0  0  0
  188.5026  178.1582  130.5624 C   0  0  1  0  0  0  0  0  0  0  0  0
  190.9369  180.7565  125.2871 C   0  0  0  0  0  0  0  0  0  0  0  0
  192.2942  180.3717  125.0968 N   0  0  0  0  0  0  0  0  0  0  0  0
  190.3130  181.3010  124.3678 O   0  0  0  0  0  0  0  0  0  0  0  0
  1  2  1  6
  2  3  1  0
  4  3  1  1
  4  5  1  0
  5  6  1  0
  6  7  1  0
  7  8  1  0
  7  9  1  0
  7 10  1  0
 10 11  2  0
 10 12  1  0
  4 13  1  0
 13 14  1  6
 13 15  1  0
 15 16  1  0
 17 16  1  6
 17 18  1  0
 18 19  2  0
 19 20  1  0
 20 21  2  0
 21 22  1  0
 22 23  2  0
 23 24  1  0
 24 25  1  0
 26 25  1  1
 21 27  1  0
 27 28  1  0
 27 29  2  0
 13  1  1  0
 26 17  1  0
 26  1  1  0
 12  4  1  0
 23 18  1  0
M  END
$$$$
