
     RDKit          3D

 29 33  0  0  0  0  0  0  0  0999 V2000
  188.1947  163.5871  139.9612 C   0  0  2  0  0  0  0  0  0  0  0  0
  189.0070  163.4982  141.2049 C   0  0  0  0  0  0  0  0  0  0  0  0
  187.9298  163.5754  142.2679 C   0  0  0  0  0  0  0  0  0  0  0  0
  186.6750  162.9470  141.6400 C   0  0  2  0  0  0  0  0  0  0  0  0
  185.5203  163.8265  141.8817 C   0  0  0  0  0  0  0  0  0  0  0  0
  184.2433  163.0517  142.2332 C   0  0  0  0  0  0  0  0  0  0  0  0
  184.4314  162.2981  143.5347 C   0  0  0  0  0  0  0  0  0  0  0  0
  184.3316  163.2204  144.7300 C   0  0  0  0  0  0  0  0  0  0  0  0
  183.3801  161.2115  143.6425 C   0  0  0  0  0  0  0  0  0  0  0  0
  185.7519  161.6431  143.4727 C   0  0  0  0  0  0  0  0  0  0  0  0
  186.1903  161.0200  144.4659 O   0  0  0  0  0  0  0  0  0  0  0  0
  186.4859  161.7244  142.3226 O   0  0  0  0  0  0  0  0  0  0  0  0
  187.0041  162.6505  140.2205 C   0  0  2  0  0  0  0  0  0  0  0  0
  187.4607  161.2139  140.0947 C   0  0  0  0  0  0  0  0  0  0  0  0
  185.9826  163.0384  139.2183 C   0  0  0  0  0  0  0  0  0  0  0  0
  186.5370  162.7544  137.8184 C   0  0  0  0  0  0  0  0  0  0  0  0
  187.8773  163.3543  137.5959 C   0  0  2  0  0  0  0  0  0  0  0  0
  188.4370  162.8161  136.3408 C   0  0  0  0  0  0  0  0  0  0  0  0
  187.6170  162.2299  135.4048 C   0  0  0  0  0  0  0  0  0  0  0  0
  188.1528  161.7203  134.2150 C   0  0  0  0  0  0  0  0  0  0  0  0
  189.5205  161.8152  133.9946 C   0  0  0  0  0  0  0  0  0  0  0  0
  190.3001  162.4049  134.9498 C   0  0  0  0  0  0  0  0  0  0  0  0
  189.7946  162.9186  136.1387 C   0  0  0  0  0  0  0  0  0  0  0  0
  190.7212  163.5363  137.1062 C   0  0  0  0  0  0  0  0  0  0  0  0
  190.1836  163.6775  138.4777 C   0  0  0  0  0  0  0  0  0  0  0  0
  188.8602  163.0703  138.7261 C   0  0  1  0  0  0  0  0  0  0  0  0
  190.0962  161.2818  132.7446 C   0  0  0  0  0  0  0  0  0  0  0  0
  191.4906  161.4721  132.5301 N   0  0  0  0  0  0  0  0  0  0  0  0
  189.4151  160.6881  131.8993 O   0  0  0  0  0  0  0  0  0  0  0  0
  1  2  1  1
  2  3  1  0
  4  3  1  1
  4  5  1  0
  5  6  1  0
  6  7  1  0
  7  8  1  0
  7  9  1  0
  7 10  1  0
 10 11  2  0
 10 12  1  0
  4 13  1  0
 13 14  1  1
 13 15  1  0
 15 16  1  0
 17 16  1  1
 17 18  1  0
 18 19  2  0
 19 20  1  0
 20 21  2  0
 21 22  1  0
 22 23  2  0
 23 24  1  0
 24 25  1  0
 26 25  1  6
 21 27  1  0
 27 28  1  0
 27 29  2  0
 13  1  1  0
 26 17  1  0
 26  1  1  0
 12  4  1  0
 23 18  1  0
M  END
$$$$
