
     RDKit          3D

 29 33  0  0  0  0  0  0  0  0999 V2000
  187.3242  164.0005  121.0450 C   0  0  2  0  0  0  0  0  0  0  0  0
  187.7541  164.4862  119.7057 C   0  0  0  0  0  0  0  0  0  0  0  0
  186.9901  165.7910  119.6051 C   0  0  0  0  0  0  0  0  0  0  0  0
  186.8449  166.3044  121.0470 C   0  0  2  0  0  0  0  0  0  0  0  0
  185.4488  166.7071  121.2793 C   0  0  0  0  0  0  0  0  0  0  0  0
  185.3287  167.9952  122.1046 C   0  0  0  0  0  0  0  0  0  0  0  0
  185.9435  169.1574  121.3507 C   0  0  0  0  0  0  0  0  0  0  0  0
  185.0315  169.6492  120.2482 C   0  0  0  0  0  0  0  0  0  0  0  0
  186.2274  170.2896  122.3178 C   0  0  0  0  0  0  0  0  0  0  0  0
  187.2349  168.6924  120.8098 C   0  0  0  0  0  0  0  0  0  0  0  0
  187.9109  169.4413  120.0687 O   0  0  0  0  0  0  0  0  0  0  0  0
  187.6815  167.4402  121.1271 O   0  0  0  0  0  0  0  0  0  0  0  0
  187.3934  165.2487  121.9391 C   0  0  2  0  0  0  0  0  0  0  0  0
  188.8397  165.5556  122.2590 C   0  0  0  0  0  0  0  0  0  0  0  0
  186.5798  164.9141  123.1325 C   0  0  0  0  0  0  0  0  0  0  0  0
  187.2444  163.7449  123.8667 C   0  0  0  0  0  0  0  0  0  0  0  0
  187.5328  162.5927  122.9749 C   0  0  2  0  0  0  0  0  0  0  0  0
  188.3965  161.6376  123.6960 C   0  0  0  0  0  0  0  0  0  0  0  0
  188.4893  161.6774  125.0678 C   0  0  0  0  0  0  0  0  0  0  0  0
  189.3105  160.7689  125.7479 C   0  0  0  0  0  0  0  0  0  0  0  0
  190.0279  159.8297  125.0190 C   0  0  0  0  0  0  0  0  0  0  0  0
  189.9077  159.8237  123.6576 C   0  0  0  0  0  0  0  0  0  0  0  0
  189.1003  160.7134  122.9579 C   0  0  0  0  0  0  0  0  0  0  0  0
  189.0395  160.6242  121.4866 C   0  0  0  0  0  0  0  0  0  0  0  0
  188.5038  161.8281  120.8131 C   0  0  0  0  0  0  0  0  0  0  0  0
  188.2287  162.9928  121.6789 C   0  0  1  0  0  0  0  0  0  0  0  0
  190.8963  158.8674  125.7248 C   0  0  0  0  0  0  0  0  0  0  0  0
  191.3595  157.7392  124.9904 N   0  0  0  0  0  0  0  0  0  0  0  0
  191.2242  159.0123  126.9091 O   0  0  0  0  0  0  0  0  0  0  0  0
  1  2  1  6
  2  3  1  0
  4  3  1  6
  4  5  1  0
  5  6  1  0
  6  7  1  0
  7  8  1  0
  7  9  1  0
  7 10  1  0
 10 11  2  0
 10 12  1  0
  4 13  1  0
 13 14  1  1
 13 15  1  0
 15 16  1  0
 17 16  1  1
 17 18  1  0
 18 19  2  0
 19 20  1  0
 20 21  2  0
 21 22  1  0
 22 23  2  0
 23 24  1  0
 24 25  1  0
 26 25  1  6
 21 27  1  0
 27 28  1  0
 27 29  2  0
 13  1  1  0
 26 17  1  0
 26  1  1  0
 12  4  1  0
 23 18  1  0
M  END
$$$$
