
     RDKit          3D

 29 33  0  0  0  0  0  0  0  0999 V2000
  147.2249  166.2920  132.5518 C   0  0  2  0  0  0  0  0  0  0  0  0
  146.1510  165.3524  132.9740 C   0  0  0  0  0  0  0  0  0  0  0  0
  145.9101  165.8008  134.4014 C   0  0  0  0  0  0  0  0  0  0  0  0
  146.2291  167.3044  134.4283 C   0  0  2  0  0  0  0  0  0  0  0  0
  147.0948  167.5952  135.5821 C   0  0  0  0  0  0  0  0  0  0  0  0
  146.7233  168.9040  136.2920 C   0  0  0  0  0  0  0  0  0  0  0  0
  145.3276  168.8042  136.8742 C   0  0  0  0  0  0  0  0  0  0  0  0
  145.3132  167.9833  138.1451 C   0  0  0  0  0  0  0  0  0  0  0  0
  144.8031  170.1967  137.1631 C   0  0  0  0  0  0  0  0  0  0  0  0
  144.4649  168.2036  135.8390 C   0  0  0  0  0  0  0  0  0  0  0  0
  143.2706  167.9322  136.0978 O   0  0  0  0  0  0  0  0  0  0  0  0
  144.9837  167.9493  134.6003 O   0  0  0  0  0  0  0  0  0  0  0  0
  146.7632  167.6572  133.0860 C   0  0  2  0  0  0  0  0  0  0  0  0
  145.6429  168.1823  132.2159 C   0  0  0  0  0  0  0  0  0  0  0  0
  147.9768  168.5087  133.0690 C   0  0  0  0  0  0  0  0  0  0  0  0
  148.4364  168.6778  131.6171 C   0  0  0  0  0  0  0  0  0  0  0  0
  148.5820  167.3834  130.9035 C   0  0  2  0  0  0  0  0  0  0  0  0
  148.7667  167.6519  129.4640 C   0  0  0  0  0  0  0  0  0  0  0  0
  149.1638  168.8955  129.0305 C   0  0  0  0  0  0  0  0  0  0  0  0
  149.3376  169.1457  127.6632 C   0  0  0  0  0  0  0  0  0  0  0  0
  149.1038  168.1227  126.7539 C   0  0  0  0  0  0  0  0  0  0  0  0
  148.7105  166.9018  127.2259 C   0  0  0  0  0  0  0  0  0  0  0  0
  148.5306  166.6266  128.5767 C   0  0  0  0  0  0  0  0  0  0  0  0
  148.1036  165.2745  128.9840 C   0  0  0  0  0  0  0  0  0  0  0  0
  147.5513  165.1842  130.3540 C   0  0  0  0  0  0  0  0  0  0  0  0
  147.3794  166.4621  131.0745 C   0  0  1  0  0  0  0  0  0  0  0  0
  149.2838  168.3748  125.3108 C   0  0  0  0  0  0  0  0  0  0  0  0
  150.0810  167.4514  124.5771 N   0  0  0  0  0  0  0  0  0  0  0  0
  148.7722  169.3439  124.7363 O   0  0  0  0  0  0  0  0  0  0  0  0
  1  2  1  6
  2  3  1  0
  4  3  1  6
  4  5  1  0
  5  6  1  0
  6  7  1  0
  7  8  1  0
  7  9  1  0
  7 10  1  0
 10 11  2  0
 10 12  1  0
  4 13  1  0
 13 14  1  6
 13 15  1  0
 15 16  1  0
 17 16  1  1
 17 18  1  0
 18 19  2  0
 19 20  1  0
 20 21  2  0
 21 22  1  0
 22 23  2  0
 23 24  1  0
 24 25  1  0
 26 25  1  6
 21 27  1  0
 27 28  1  0
 27 29  2  0
 13  1  1  0
 26 17  1  0
 26  1  1  0
 12  4  1  0
 23 18  1  0
M  END
$$$$
