
     RDKit          3D

 29 33  0  0  0  0  0  0  0  0999 V2000
  204.6088  132.1750  136.0991 C   0  0  2  0  0  0  0  0  0  0  0  0
  204.2690  130.7549  135.8121 C   0  0  0  0  0  0  0  0  0  0  0  0
  202.9698  130.6013  136.5769 C   0  0  0  0  0  0  0  0  0  0  0  0
  202.3097  131.9897  136.5656 C   0  0  2  0  0  0  0  0  0  0  0  0
  201.8641  132.3252  137.9272 C   0  0  0  0  0  0  0  0  0  0  0  0
  200.4967  133.0212  137.9532 C   0  0  0  0  0  0  0  0  0  0  0  0
  199.4271  132.0908  137.4171 C   0  0  0  0  0  0  0  0  0  0  0  0
  199.0367  131.0458  138.4392 C   0  0  0  0  0  0  0  0  0  0  0  0
  198.2066  132.9006  137.0270 C   0  0  0  0  0  0  0  0  0  0  0  0
  199.9647  131.4676  136.1926 C   0  0  0  0  0  0  0  0  0  0  0  0
  199.3057  130.5861  135.5962 O   0  0  0  0  0  0  0  0  0  0  0  0
  201.1845  131.8636  135.7203 O   0  0  0  0  0  0  0  0  0  0  0  0
  203.2770  132.9232  135.9297 C   0  0  2  0  0  0  0  0  0  0  0  0
  202.9611  133.0554  134.4563 C   0  0  0  0  0  0  0  0  0  0  0  0
  203.4755  134.2238  136.6131 C   0  0  0  0  0  0  0  0  0  0  0  0
  204.5736  135.0005  135.8792 C   0  0  0  0  0  0  0  0  0  0  0  0
  205.8151  134.2070  135.6924 C   0  0  2  0  0  0  0  0  0  0  0  0
  206.7047  134.9276  134.7609 C   0  0  0  0  0  0  0  0  0  0  0  0
  206.5263  136.2706  134.5224 C   0  0  0  0  0  0  0  0  0  0  0  0
  207.3731  136.9504  133.6374 C   0  0  0  0  0  0  0  0  0  0  0  0
  208.3927  136.2506  133.0058 C   0  0  0  0  0  0  0  0  0  0  0  0
  208.5358  134.9174  133.2703 C   0  0  0  0  0  0  0  0  0  0  0  0
  207.7100  134.2187  134.1437 C   0  0  0  0  0  0  0  0  0  0  0  0
  207.9481  132.7792  134.3612 C   0  0  0  0  0  0  0  0  0  0  0  0
  206.8112  132.0453  134.9603 C   0  0  0  0  0  0  0  0  0  0  0  0
  205.5601  132.8105  135.1366 C   0  0  1  0  0  0  0  0  0  0  0  0
  209.2910  136.9565  132.0713 C   0  0  0  0  0  0  0  0  0  0  0  0
  210.6352  136.4970  131.9791 N   0  0  0  0  0  0  0  0  0  0  0  0
  208.9153  137.9135  131.3830 O   0  0  0  0  0  0  0  0  0  0  0  0
  1  2  1  6
  2  3  1  0
  4  3  1  1
  4  5  1  0
  5  6  1  0
  6  7  1  0
  7  8  1  0
  7  9  1  0
  7 10  1  0
 10 11  2  0
 10 12  1  0
  4 13  1  0
 13 14  1  6
 13 15  1  0
 15 16  1  0
 17 16  1  6
 17 18  1  0
 18 19  2  0
 19 20  1  0
 20 21  2  0
 21 22  1  0
 22 23  2  0
 23 24  1  0
 24 25  1  0
 26 25  1  1
 21 27  1  0
 27 28  1  0
 27 29  2  0
 13  1  1  0
 26 17  1  0
 26  1  1  0
 12  4  1  0
 23 18  1  0
M  END
$$$$
