
     RDKit          3D

 29 33  0  0  0  0  0  0  0  0999 V2000
  172.9404  161.8504  112.9484 C   0  0  2  0  0  0  0  0  0  0  0  0
  172.3132  161.2553  114.1595 C   0  0  0  0  0  0  0  0  0  0  0  0
  173.5352  160.8051  114.9345 C   0  0  0  0  0  0  0  0  0  0  0  0
  174.6564  161.7871  114.5574 C   0  0  2  0  0  0  0  0  0  0  0  0
  175.8724  161.0287  114.2236 C   0  0  0  0  0  0  0  0  0  0  0  0
  177.1506  161.6809  114.7674 C   0  0  0  0  0  0  0  0  0  0  0  0
  177.1187  161.7087  116.2823 C   0  0  0  0  0  0  0  0  0  0  0  0
  177.4318  160.3498  116.8695 C   0  0  0  0  0  0  0  0  0  0  0  0
  178.1245  162.7241  116.7874 C   0  0  0  0  0  0  0  0  0  0  0  0
  175.7750  162.1680  116.6822 C   0  0  0  0  0  0  0  0  0  0  0  0
  175.4570  162.1992  117.8926 O   0  0  0  0  0  0  0  0  0  0  0  0
  174.8868  162.5576  115.7191 O   0  0  0  0  0  0  0  0  0  0  0  0
  174.1126  162.6784  113.4985 C   0  0  2  0  0  0  0  0  0  0  0  0
  173.5782  163.9461  114.1273 C   0  0  0  0  0  0  0  0  0  0  0  0
  174.9949  162.9207  112.3319 C   0  0  0  0  0  0  0  0  0  0  0  0
  174.2318  163.7673  111.3079 C   0  0  0  0  0  0  0  0  0  0  0  0
  172.9018  163.2007  110.9672 C   0  0  2  0  0  0  0  0  0  0  0  0
  172.1429  164.2013  110.1919 C   0  0  0  0  0  0  0  0  0  0  0  0
  172.7917  165.2439  109.5721 C   0  0  0  0  0  0  0  0  0  0  0  0
  172.0671  166.1913  108.8375 C   0  0  0  0  0  0  0  0  0  0  0  0
  170.6876  166.0631  108.7441 C   0  0  0  0  0  0  0  0  0  0  0  0
  170.0816  165.0128  109.3747 C   0  0  0  0  0  0  0  0  0  0  0  0
  170.7764  164.0590  110.1098 C   0  0  0  0  0  0  0  0  0  0  0  0
  170.0282  162.9623  110.7531 C   0  0  0  0  0  0  0  0  0  0  0  0
  170.7642  162.2524  111.8229 C   0  0  0  0  0  0  0  0  0  0  0  0
  172.0809  162.8113  112.1914 C   0  0  1  0  0  0  0  0  0  0  0  0
  169.9138  167.0554  107.9727 C   0  0  0  0  0  0  0  0  0  0  0  0
  168.5203  167.1573  108.2451 N   0  0  0  0  0  0  0  0  0  0  0  0
  170.4321  167.7829  107.1165 O   0  0  0  0  0  0  0  0  0  0  0  0
  1  2  1  1
  2  3  1  0
  4  3  1  1
  4  5  1  0
  5  6  1  0
  6  7  1  0
  7  8  1  0
  7  9  1  0
  7 10  1  0
 10 11  2  0
 10 12  1  0
  4 13  1  0
 13 14  1  1
 13 15  1  0
 15 16  1  0
 17 16  1  1
 17 18  1  0
 18 19  2  0
 19 20  1  0
 20 21  2  0
 21 22  1  0
 22 23  2  0
 23 24  1  0
 24 25  1  0
 26 25  1  6
 21 27  1  0
 27 28  1  0
 27 29  2  0
 13  1  1  0
 26 17  1  0
 26  1  1  0
 12  4  1  0
 23 18  1  0
M  END
$$$$
