
     RDKit          3D

 29 33  0  0  0  0  0  0  0  0999 V2000
  120.5163  146.1549  147.0427 C   0  0  2  0  0  0  0  0  0  0  0  0
  121.0935  145.0857  146.1836 C   0  0  0  0  0  0  0  0  0  0  0  0
  121.4073  145.8596  144.9190 C   0  0  0  0  0  0  0  0  0  0  0  0
  121.7193  147.2951  145.3723 C   0  0  2  0  0  0  0  0  0  0  0  0
  120.9755  148.2423  144.5268 C   0  0  0  0  0  0  0  0  0  0  0  0
  121.7983  149.4828  144.1540 C   0  0  0  0  0  0  0  0  0  0  0  0
  122.9977  149.0821  143.3187 C   0  0  0  0  0  0  0  0  0  0  0  0
  122.6033  148.7797  141.8896 C   0  0  0  0  0  0  0  0  0  0  0  0
  124.0195  150.2015  143.3375 C   0  0  0  0  0  0  0  0  0  0  0  0
  123.6069  147.9049  143.9665 C   0  0  0  0  0  0  0  0  0  0  0  0
  124.5729  147.3208  143.4254 O   0  0  0  0  0  0  0  0  0  0  0  0
  123.1059  147.4631  145.1589 O   0  0  0  0  0  0  0  0  0  0  0  0
  121.4549  147.3541  146.8344 C   0  0  2  0  0  0  0  0  0  0  0  0
  122.7425  147.1195  147.5929 C   0  0  0  0  0  0  0  0  0  0  0  0
  120.6900  148.5305  147.3132 C   0  0  0  0  0  0  0  0  0  0  0  0
  120.4264  148.3661  148.8136 C   0  0  0  0  0  0  0  0  0  0  0  0
  119.8160  147.0551  149.1520 C   0  0  2  0  0  0  0  0  0  0  0  0
  119.8428  146.8819  150.6174 C   0  0  0  0  0  0  0  0  0  0  0  0
  120.0068  147.9673  151.4464 C   0  0  0  0  0  0  0  0  0  0  0  0
  120.0318  147.7981  152.8368 C   0  0  0  0  0  0  0  0  0  0  0  0
  119.8889  146.5218  153.3648 C   0  0  0  0  0  0  0  0  0  0  0  0
  119.7282  145.4703  152.5067 C   0  0  0  0  0  0  0  0  0  0  0  0
  119.6998  145.6102  151.1237 C   0  0  0  0  0  0  0  0  0  0  0  0
  119.5210  144.4107  150.2836 C   0  0  0  0  0  0  0  0  0  0  0  0
  119.9059  144.5832  148.8652 C   0  0  0  0  0  0  0  0  0  0  0  0
  120.5334  145.8726  148.5108 C   0  0  1  0  0  0  0  0  0  0  0  0
  119.9137  146.3314  154.8283 C   0  0  0  0  0  0  0  0  0  0  0  0
  119.0515  145.3400  155.3763 N   0  0  0  0  0  0  0  0  0  0  0  0
  120.6463  146.9947  155.5727 O   0  0  0  0  0  0  0  0  0  0  0  0
  1  2  1  6
  2  3  1  0
  4  3  1  6
  4  5  1  0
  5  6  1  0
  6  7  1  0
  7  8  1  0
  7  9  1  0
  7 10  1  0
 10 11  2  0
 10 12  1  0
  4 13  1  0
 13 14  1  1
 13 15  1  0
 15 16  1  0
 17 16  1  1
 17 18  1  0
 18 19  2  0
 19 20  1  0
 20 21  2  0
 21 22  1  0
 22 23  2  0
 23 24  1  0
 24 25  1  0
 26 25  1  6
 21 27  1  0
 27 28  1  0
 27 29  2  0
 13  1  1  0
 26 17  1  0
 26  1  1  0
 12  4  1  0
 23 18  1  0
M  END
$$$$
