
     RDKit          3D

 29 33  0  0  0  0  0  0  0  0999 V2000
  186.3058  182.1846  138.6720 C   0  0  2  0  0  0  0  0  0  0  0  0
  187.7365  181.7767  138.6403 C   0  0  0  0  0  0  0  0  0  0  0  0
  187.6760  180.4315  139.3354 C   0  0  0  0  0  0  0  0  0  0  0  0
  186.2861  179.8569  139.0170 C   0  0  2  0  0  0  0  0  0  0  0  0
  185.6716  179.3597  140.2582 C   0  0  0  0  0  0  0  0  0  0  0  0
  184.9189  178.0368  140.0632 C   0  0  0  0  0  0  0  0  0  0  0  0
  185.8830  176.9440  139.6471 C   0  0  0  0  0  0  0  0  0  0  0  0
  186.6898  176.4378  140.8228 C   0  0  0  0  0  0  0  0  0  0  0  0
  185.1067  175.7965  139.0322 C   0  0  0  0  0  0  0  0  0  0  0  0
  186.7572  177.5083  138.6012 C   0  0  0  0  0  0  0  0  0  0  0  0
  187.7050  176.8308  138.1430 O   0  0  0  0  0  0  0  0  0  0  0  0
  186.5196  178.7731  138.1410 O   0  0  0  0  0  0  0  0  0  0  0  0
  185.5415  180.9108  138.2779 C   0  0  2  0  0  0  0  0  0  0  0  0
  185.6827  180.6827  136.7893 C   0  0  0  0  0  0  0  0  0  0  0  0
  184.1440  181.1495  138.7118 C   0  0  0  0  0  0  0  0  0  0  0  0
  183.5783  182.3296  137.9150 C   0  0  0  0  0  0  0  0  0  0  0  0
  184.4518  183.5299  137.9630 C   0  0  2  0  0  0  0  0  0  0  0  0
  183.9693  184.5094  136.9701 C   0  0  0  0  0  0  0  0  0  0  0  0
  182.6912  184.4244  136.4686 C   0  0  0  0  0  0  0  0  0  0  0  0
  182.2377  185.3564  135.5262 C   0  0  0  0  0  0  0  0  0  0  0  0
  183.0949  186.3649  135.1065 C   0  0  0  0  0  0  0  0  0  0  0  0
  184.3568  186.4139  135.6292 C   0  0  0  0  0  0  0  0  0  0  0  0
  184.8321  185.5024  136.5652 C   0  0  0  0  0  0  0  0  0  0  0  0
  186.2118  185.6423  137.0683 C   0  0  0  0  0  0  0  0  0  0  0  0
  186.7598  184.4333  137.7224 C   0  0  0  0  0  0  0  0  0  0  0  0
  185.9157  183.2223  137.6689 C   0  0  1  0  0  0  0  0  0  0  0  0
  182.6280  187.3524  134.1139 C   0  0  0  0  0  0  0  0  0  0  0  0
  183.4521  188.4895  133.8808 N   0  0  0  0  0  0  0  0  0  0  0  0
  181.5650  187.2208  133.4944 O   0  0  0  0  0  0  0  0  0  0  0  0
  1  2  1  6
  2  3  1  0
  4  3  1  1
  4  5  1  0
  5  6  1  0
  6  7  1  0
  7  8  1  0
  7  9  1  0
  7 10  1  0
 10 11  2  0
 10 12  1  0
  4 13  1  0
 13 14  1  6
 13 15  1  0
 15 16  1  0
 17 16  1  6
 17 18  1  0
 18 19  2  0
 19 20  1  0
 20 21  2  0
 21 22  1  0
 22 23  2  0
 23 24  1  0
 24 25  1  0
 26 25  1  1
 21 27  1  0
 27 28  1  0
 27 29  2  0
 13  1  1  0
 26 17  1  0
 26  1  1  0
 12  4  1  0
 23 18  1  0
M  END
$$$$
