
     RDKit          3D

 29 33  0  0  0  0  0  0  0  0999 V2000
  121.8942  150.6841  150.3022 C   0  0  2  0  0  0  0  0  0  0  0  0
  122.3964  151.3314  151.5444 C   0  0  0  0  0  0  0  0  0  0  0  0
  121.8349  150.4082  152.6068 C   0  0  0  0  0  0  0  0  0  0  0  0
  121.7619  149.0166  151.9573 C   0  0  2  0  0  0  0  0  0  0  0  0
  120.4401  148.4270  152.2229 C   0  0  0  0  0  0  0  0  0  0  0  0
  120.5093  146.9289  152.5479 C   0  0  0  0  0  0  0  0  0  0  0  0
  121.2926  146.7077  153.8263 C   0  0  0  0  0  0  0  0  0  0  0  0
  120.4678  147.0462  155.0488 C   0  0  0  0  0  0  0  0  0  0  0  0
  121.7376  145.2605  153.8987 C   0  0  0  0  0  0  0  0  0  0  0  0
  122.5028  147.5478  153.7475 C   0  0  0  0  0  0  0  0  0  0  0  0
  123.2852  147.6139  154.7224 O   0  0  0  0  0  0  0  0  0  0  0  0
  122.7574  148.2488  152.6021 O   0  0  0  0  0  0  0  0  0  0  0  0
  122.1443  149.1849  150.5302 C   0  0  2  0  0  0  0  0  0  0  0  0
  123.6188  148.8923  150.3620 C   0  0  0  0  0  0  0  0  0  0  0  0
  121.2855  148.4951  149.5379 C   0  0  0  0  0  0  0  0  0  0  0  0
  121.7664  148.8664  148.1313 C   0  0  0  0  0  0  0  0  0  0  0  0
  121.8841  150.3332  147.9301 C   0  0  2  0  0  0  0  0  0  0  0  0
  122.5938  150.5838  146.6606 C   0  0  0  0  0  0  0  0  0  0  0  0
  122.6863  149.5984  145.7054 C   0  0  0  0  0  0  0  0  0  0  0  0
  123.3610  149.8408  144.5019 C   0  0  0  0  0  0  0  0  0  0  0  0
  123.9339  151.0874  144.2876 C   0  0  0  0  0  0  0  0  0  0  0  0
  123.8193  152.0389  145.2620 C   0  0  0  0  0  0  0  0  0  0  0  0
  123.1556  151.8250  146.4648 C   0  0  0  0  0  0  0  0  0  0  0  0
  123.0879  152.9185  147.4527 C   0  0  0  0  0  0  0  0  0  0  0  0
  122.7393  152.4933  148.8266 C   0  0  0  0  0  0  0  0  0  0  0  0
  122.6367  151.0373  149.0535 C   0  0  1  0  0  0  0  0  0  0  0  0
  124.6472  151.3543  143.0234 C   0  0  0  0  0  0  0  0  0  0  0  0
  125.2763  152.6232  142.8795 N   0  0  0  0  0  0  0  0  0  0  0  0
  124.7111  150.5242  142.1080 O   0  0  0  0  0  0  0  0  0  0  0  0
  1  2  1  1
  2  3  1  0
  4  3  1  1
  4  5  1  0
  5  6  1  0
  6  7  1  0
  7  8  1  0
  7  9  1  0
  7 10  1  0
 10 11  2  0
 10 12  1  0
  4 13  1  0
 13 14  1  1
 13 15  1  0
 15 16  1  0
 17 16  1  1
 17 18  1  0
 18 19  2  0
 19 20  1  0
 20 21  2  0
 21 22  1  0
 22 23  2  0
 23 24  1  0
 24 25  1  0
 26 25  1  6
 21 27  1  0
 27 28  1  0
 27 29  2  0
 13  1  1  0
 26 17  1  0
 26  1  1  0
 12  4  1  0
 23 18  1  0
M  END
$$$$
