
     RDKit          3D

 29 33  0  0  0  0  0  0  0  0999 V2000
  188.4530  163.3578  140.8105 C   0  0  2  0  0  0  0  0  0  0  0  0
  189.5753  162.9869  141.7146 C   0  0  0  0  0  0  0  0  0  0  0  0
  188.9089  163.0918  143.0716 C   0  0  0  0  0  0  0  0  0  0  0  0
  187.4283  162.7488  142.8395 C   0  0  2  0  0  0  0  0  0  0  0  0
  186.5877  163.7567  143.5048 C   0  0  0  0  0  0  0  0  0  0  0  0
  185.3586  163.1483  144.1933 C   0  0  0  0  0  0  0  0  0  0  0  0
  185.7920  162.2146  145.3056 C   0  0  0  0  0  0  0  0  0  0  0  0
  186.2360  162.9806  146.5326 C   0  0  0  0  0  0  0  0  0  0  0  0
  184.6412  161.2972  145.6685 C   0  0  0  0  0  0  0  0  0  0  0  0
  186.8841  161.3781  144.7724 C   0  0  0  0  0  0  0  0  0  0  0  0
  187.4813  160.5732  145.5224 O   0  0  0  0  0  0  0  0  0  0  0  0
  187.2330  161.4925  143.4558 O   0  0  0  0  0  0  0  0  0  0  0  0
  187.2462  162.5895  141.3722 C   0  0  2  0  0  0  0  0  0  0  0  0
  187.3669  161.1280  141.0016 C   0  0  0  0  0  0  0  0  0  0  0  0
  186.0582  163.2545  140.7853 C   0  0  0  0  0  0  0  0  0  0  0  0
  186.0949  163.0705  139.2646 C   0  0  0  0  0  0  0  0  0  0  0  0
  187.3900  163.4813  138.6647 C   0  0  2  0  0  0  0  0  0  0  0  0
  187.4286  163.0287  137.2605 C   0  0  0  0  0  0  0  0  0  0  0  0
  186.2676  162.7000  136.6001 C   0  0  0  0  0  0  0  0  0  0  0  0
  186.3092  162.2707  135.2673 C   0  0  0  0  0  0  0  0  0  0  0  0
  187.5365  162.1822  134.6238 C   0  0  0  0  0  0  0  0  0  0  0  0
  188.6664  162.5181  135.3156 C   0  0  0  0  0  0  0  0  0  0  0  0
  188.6535  162.9468  136.6381 C   0  0  0  0  0  0  0  0  0  0  0  0
  189.9295  163.2862  137.2961 C   0  0  0  0  0  0  0  0  0  0  0  0
  189.8732  163.3313  138.7742 C   0  0  0  0  0  0  0  0  0  0  0  0
  188.6005  162.9075  139.3925 C   0  0  1  0  0  0  0  0  0  0  0  0
  187.5926  161.7312  133.2195 C   0  0  0  0  0  0  0  0  0  0  0  0
  188.6967  160.9196  132.8339 N   0  0  0  0  0  0  0  0  0  0  0  0
  186.7261  162.0328  132.3894 O   0  0  0  0  0  0  0  0  0  0  0  0
  1  2  1  1
  2  3  1  0
  4  3  1  6
  4  5  1  0
  5  6  1  0
  6  7  1  0
  7  8  1  0
  7  9  1  0
  7 10  1  0
 10 11  2  0
 10 12  1  0
  4 13  1  0
 13 14  1  1
 13 15  1  0
 15 16  1  0
 17 16  1  1
 17 18  1  0
 18 19  2  0
 19 20  1  0
 20 21  2  0
 21 22  1  0
 22 23  2  0
 23 24  1  0
 24 25  1  0
 26 25  1  6
 21 27  1  0
 27 28  1  0
 27 29  2  0
 13  1  1  0
 26 17  1  0
 26  1  1  0
 12  4  1  0
 23 18  1  0
M  END
$$$$
