
     RDKit          3D

 29 33  0  0  0  0  0  0  0  0999 V2000
  165.7892  156.5488  125.3249 C   0  0  2  0  0  0  0  0  0  0  0  0
  166.8786  157.3995  124.7737 C   0  0  0  0  0  0  0  0  0  0  0  0
  166.3815  158.7856  125.1319 C   0  0  0  0  0  0  0  0  0  0  0  0
  165.5653  158.6176  126.4238 C   0  0  2  0  0  0  0  0  0  0  0  0
  164.2835  159.3262  126.2823 C   0  0  0  0  0  0  0  0  0  0  0  0
  163.8657  160.0651  127.5608 C   0  0  0  0  0  0  0  0  0  0  0  0
  164.8710  161.1509  127.8884 C   0  0  0  0  0  0  0  0  0  0  0  0
  164.6905  162.3616  126.9992 C   0  0  0  0  0  0  0  0  0  0  0  0
  164.7146  161.5589  129.3398 C   0  0  0  0  0  0  0  0  0  0  0  0
  166.2150  160.5641  127.7276 C   0  0  0  0  0  0  0  0  0  0  0  0
  167.2325  161.2816  127.8583 O   0  0  0  0  0  0  0  0  0  0  0  0
  166.3341  159.2340  127.4364 O   0  0  0  0  0  0  0  0  0  0  0  0
  165.4953  157.1590  126.7046 C   0  0  2  0  0  0  0  0  0  0  0  0
  166.5970  156.7740  127.6669 C   0  0  0  0  0  0  0  0  0  0  0  0
  164.1635  156.6299  127.0847 C   0  0  0  0  0  0  0  0  0  0  0  0
  164.2641  155.1080  127.2305 C   0  0  0  0  0  0  0  0  0  0  0  0
  164.8710  154.4535  126.0434 C   0  0  2  0  0  0  0  0  0  0  0  0
  165.1664  153.0461  126.3752 C   0  0  0  0  0  0  0  0  0  0  0  0
  164.5512  152.4361  127.4437 C   0  0  0  0  0  0  0  0  0  0  0  0
  164.8348  151.1000  127.7549 C   0  0  0  0  0  0  0  0  0  0  0  0
  165.7439  150.4019  126.9711 C   0  0  0  0  0  0  0  0  0  0  0  0
  166.3331  151.0446  125.9187 C   0  0  0  0  0  0  0  0  0  0  0  0
  166.0698  152.3691  125.5879 C   0  0  0  0  0  0  0  0  0  0  0  0
  166.7590  152.9715  124.4311 C   0  0  0  0  0  0  0  0  0  0  0  0
  166.7408  154.4509  124.3988 C   0  0  0  0  0  0  0  0  0  0  0  0
  166.1596  155.1228  125.5789 C   0  0  1  0  0  0  0  0  0  0  0  0
  166.0505  148.9937  127.2896 C   0  0  0  0  0  0  0  0  0  0  0  0
  167.2809  148.4642  126.8077 N   0  0  0  0  0  0  0  0  0  0  0  0
  165.2847  148.2791  127.9483 O   0  0  0  0  0  0  0  0  0  0  0  0
  1  2  1  1
  2  3  1  0
  4  3  1  6
  4  5  1  0
  5  6  1  0
  6  7  1  0
  7  8  1  0
  7  9  1  0
  7 10  1  0
 10 11  2  0
 10 12  1  0
  4 13  1  0
 13 14  1  1
 13 15  1  0
 15 16  1  0
 17 16  1  1
 17 18  1  0
 18 19  2  0
 19 20  1  0
 20 21  2  0
 21 22  1  0
 22 23  2  0
 23 24  1  0
 24 25  1  0
 26 25  1  6
 21 27  1  0
 27 28  1  0
 27 29  2  0
 13  1  1  0
 26 17  1  0
 26  1  1  0
 12  4  1  0
 23 18  1  0
M  END
$$$$
