
     RDKit          3D

 29 33  0  0  0  0  0  0  0  0999 V2000
  147.5375  165.7817  132.6566 C   0  0  2  0  0  0  0  0  0  0  0  0
  146.5527  164.8149  133.2133 C   0  0  0  0  0  0  0  0  0  0  0  0
  146.4671  165.2765  134.6542 C   0  0  0  0  0  0  0  0  0  0  0  0
  146.7370  166.7897  134.6266 C   0  0  2  0  0  0  0  0  0  0  0  0
  147.7226  167.1248  135.6666 C   0  0  0  0  0  0  0  0  0  0  0  0
  147.3943  168.4315  136.4011 C   0  0  0  0  0  0  0  0  0  0  0  0
  146.0811  168.2962  137.1455 C   0  0  0  0  0  0  0  0  0  0  0  0
  146.2440  167.4941  138.4181 C   0  0  0  0  0  0  0  0  0  0  0  0
  145.5484  169.6755  137.4792 C   0  0  0  0  0  0  0  0  0  0  0  0
  145.1227  167.6533  136.2264 C   0  0  0  0  0  0  0  0  0  0  0  0
  143.9769  167.3481  136.6277 O   0  0  0  0  0  0  0  0  0  0  0  0
  145.4999  167.3973  134.9379 O   0  0  0  0  0  0  0  0  0  0  0  0
  147.0970  167.1393  133.2268 C   0  0  2  0  0  0  0  0  0  0  0  0
  145.8650  167.6158  132.4898 C   0  0  0  0  0  0  0  0  0  0  0  0
  148.2712  168.0285  133.0569 C   0  0  0  0  0  0  0  0  0  0  0  0
  148.5505  168.1906  131.5591 C   0  0  0  0  0  0  0  0  0  0  0  0
  148.6537  166.8910  130.8474 C   0  0  2  0  0  0  0  0  0  0  0  0
  148.6582  167.1439  129.3934 C   0  0  0  0  0  0  0  0  0  0  0  0
  148.9599  168.3929  128.9023 C   0  0  0  0  0  0  0  0  0  0  0  0
  148.9628  168.6283  127.5214 C   0  0  0  0  0  0  0  0  0  0  0  0
  148.6575  167.5850  126.6574 C   0  0  0  0  0  0  0  0  0  0  0  0
  148.3634  166.3594  127.1859 C   0  0  0  0  0  0  0  0  0  0  0  0
  148.3533  166.0986  128.5515 C   0  0  0  0  0  0  0  0  0  0  0  0
  148.0225  164.7399  129.0213 C   0  0  0  0  0  0  0  0  0  0  0  0
  147.6389  164.6524  130.4479 C   0  0  0  0  0  0  0  0  0  0  0  0
  147.5110  165.9347  131.1697 C   0  0  1  0  0  0  0  0  0  0  0  0
  148.6575  167.8213  125.2004 C   0  0  0  0  0  0  0  0  0  0  0  0
  149.5001  166.9977  124.4015 N   0  0  0  0  0  0  0  0  0  0  0  0
  147.9613  168.6951  124.6687 O   0  0  0  0  0  0  0  0  0  0  0  0
  1  2  1  6
  2  3  1  0
  4  3  1  6
  4  5  1  0
  5  6  1  0
  6  7  1  0
  7  8  1  0
  7  9  1  0
  7 10  1  0
 10 11  2  0
 10 12  1  0
  4 13  1  0
 13 14  1  6
 13 15  1  0
 15 16  1  0
 17 16  1  1
 17 18  1  0
 18 19  2  0
 19 20  1  0
 20 21  2  0
 21 22  1  0
 22 23  2  0
 23 24  1  0
 24 25  1  0
 26 25  1  6
 21 27  1  0
 27 28  1  0
 27 29  2  0
 13  1  1  0
 26 17  1  0
 26  1  1  0
 12  4  1  0
 23 18  1  0
M  END
$$$$
