
     RDKit          3D

 57 64  0  0  0  0  0  0  0  0999 V2000
  134.0246  140.0303  136.6955 C   0  0  1  0  0  0  0  0  0  0  0  0
  135.1396  139.2368  136.0164 C   0  0  0  0  0  0  0  0  0  0  0  0
  134.3894  138.2724  135.0840 C   0  0  0  0  0  0  0  0  0  0  0  0
  133.2017  137.9291  135.9665 C   0  0  2  0  0  0  0  0  0  0  0  0
  133.6158  137.1841  137.0738 O   0  0  0  0  0  0  0  0  0  0  0  0
  132.1077  137.2051  135.2816 C   0  0  2  0  0  0  0  0  0  0  0  0
  132.5671  135.8551  134.7423 C   0  0  0  0  0  0  0  0  0  0  0  0
  131.3257  135.0441  134.4392 C   0  0  0  0  0  0  0  0  0  0  0  0
  130.4368  135.7421  133.4366 C   0  0  2  0  0  0  0  0  0  0  0  0
  131.1200  135.7097  132.1085 C   0  0  0  0  0  0  0  0  0  0  0  0
  130.3326  136.3915  131.0141 C   0  0  2  0  0  0  0  0  0  0  0  0
  129.9747  137.7663  131.4686 C   0  0  0  0  0  0  0  0  0  0  0  0
  129.3329  137.8472  132.8091 C   0  0  0  0  0  0  0  0  0  0  0  0
  130.1250  137.1524  133.8958 C   0  0  1  0  0  0  0  0  0  0  0  0
  129.2366  137.0532  135.1011 C   0  0  0  0  0  0  0  0  0  0  0  0
  131.4192  137.9150  134.1851 C   0  0  1  0  0  0  0  0  0  0  0  0
  131.0695  139.3433  134.4909 C   0  0  0  0  0  0  0  0  0  0  0  0
  132.0998  140.0729  135.2566 C   0  0  0  0  0  0  0  0  0  0  0  0
  132.7581  139.2964  136.3861 C   0  0  2  0  0  0  0  0  0  0  0  0
  131.8204  139.2116  137.5819 C   0  0  0  0  0  0  0  0  0  0  0  0
  129.2374  135.6008  130.6702 O   0  0  0  0  0  0  0  0  0  0  0  0
  129.0189  135.5630  129.3187 C   0  0  1  0  0  0  0  0  0  0  0  0
  129.9531  136.4689  128.5169 C   0  0  0  0  0  0  0  0  0  0  0  0
  129.3506  136.4843  127.1118 C   0  0  2  0  0  0  0  0  0  0  0  0
  128.0414  136.9444  127.1415 O   0  0  0  0  0  0  0  0  0  0  0  0
  129.3054  135.0518  126.5959 C   0  0  2  0  0  0  0  0  0  0  0  0
  128.5434  135.0124  125.4305 O   0  0  0  0  0  0  0  0  0  0  0  0
  129.2105  134.4371  124.3509 C   0  0  1  0  0  0  0  0  0  0  0  0
  128.6621  133.0647  124.0240 C   0  0  0  0  0  0  0  0  0  0  0  0
  128.0782  133.1236  122.6287 C   0  0  2  0  0  0  0  0  0  0  0  0
  127.4994  131.9225  122.2523 O   0  0  0  0  0  0  0  0  0  0  0  0
  129.2160  133.5255  121.7010 C   0  0  2  0  0  0  0  0  0  0  0  0
  130.2150  132.5809  121.8623 O   0  0  0  0  0  0  0  0  0  0  0  0
  130.8449  132.2359  120.6749 C   0  0  1  0  0  0  0  0  0  0  0  0
  130.3826  133.0245  119.4919 C   0  0  0  0  0  0  0  0  0  0  0  0
  131.3988  132.8593  118.3824 C   0  0  2  0  0  0  0  0  0  0  0  0
  131.4817  131.5155  117.9496 O   0  0  0  0  0  0  0  0  0  0  0  0
  132.3123  130.5993  118.5766 C   0  0  0  0  0  0  0  0  0  0  0  0
  131.8117  129.6724  119.6284 C   0  0  0  0  0  0  0  0  0  0  0  0
  133.5233  130.5677  118.2300 O   0  0  0  0  0  0  0  0  0  0  0  0
  132.7691  133.3019  118.7763 C   0  0  2  0  0  0  0  0  0  0  0  0
  133.7770  132.6012  118.1199 O   0  0  0  0  0  0  0  0  0  0  0  0
  132.9073  133.2229  120.2764 C   0  0  1  0  0  0  0  0  0  0  0  0
  132.5192  134.5520  120.8718 C   0  0  0  0  0  0  0  0  0  0  0  0
  132.1944  132.2260  120.8733 O   0  0  0  0  0  0  0  0  0  0  0  0
  129.6385  134.9129  122.1111 C   0  0  1  0  0  0  0  0  0  0  0  0
  129.1283  135.8752  121.0280 C   0  0  0  0  0  0  0  0  0  0  0  0
  129.0691  135.3246  123.2910 O   0  0  0  0  0  0  0  0  0  0  0  0
  128.5771  134.1911  127.6067 C   0  0  1  0  0  0  0  0  0  0  0  0
  128.5391  132.7517  127.1715 C   0  0  0  0  0  0  0  0  0  0  0  0
  129.2166  134.2782  128.8417 O   0  0  0  0  0  0  0  0  0  0  0  0
  134.3161  140.2162  138.1436 C   0  0  0  0  0  0  0  0  0  0  0  0
  135.0369  141.2362  138.5758 C   0  0  0  0  0  0  0  0  0  0  0  0
  135.1558  141.1519  140.0215 C   0  0  0  0  0  0  0  0  0  0  0  0
  135.7754  141.9589  140.7944 O   0  0  0  0  0  0  0  0  0  0  0  0
  134.4711  140.0291  140.4216 O   0  0  0  0  0  0  0  0  0  0  0  0
  133.9104  139.4028  139.2920 C   0  0  0  0  0  0  0  0  0  0  0  0
  1  2  1  0
  2  3  1  0
  3  4  1  0
  4  5  1  1
  4  6  1  0
  6  7  1  6
  7  8  1  0
  9  8  1  1
  9 10  1  0
 10 11  1  0
 11 12  1  0
 12 13  1  0
 13 14  1  0
 14 15  1  1
 14 16  1  0
 16 17  1  1
 17 18  1  0
 18 19  1  0
 19 20  1  1
 11 21  1  1
 22 21  1  1
 22 23  1  0
 23 24  1  0
 24 25  1  1
 24 26  1  0
 26 27  1  6
 28 27  1  1
 28 29  1  0
 29 30  1  0
 30 31  1  6
 30 32  1  0
 32 33  1  1
 34 33  1  1
 34 35  1  0
 35 36  1  0
 36 37  1  1
 37 38  1  0
 38 39  1  0
 38 40  2  0
 36 41  1  0
 41 42  1  6
 41 43  1  0
 43 44  1  1
 43 45  1  0
 32 46  1  0
 46 47  1  6
 46 48  1  0
 26 49  1  0
 49 50  1  6
 49 51  1  0
  1 52  1  1
 52 53  2  0
 53 54  1  0
 54 55  2  0
 54 56  1  0
 56 57  1  0
 19  1  1  0
 51 22  1  0
 57 52  1  0
 19  4  1  0
 48 28  1  0
 16  6  1  0
 45 34  1  0
 14  9  1  0
M  END
$$$$
