
     RDKit          3D

 57 64  0  0  0  0  0  0  0  0999 V2000
  165.2527  156.1382  128.5332 C   0  0  1  0  0  0  0  0  0  0  0  0
  165.9151  155.4231  129.7096 C   0  0  0  0  0  0  0  0  0  0  0  0
  166.1397  153.9935  129.1918 C   0  0  0  0  0  0  0  0  0  0  0  0
  164.8625  153.8034  128.3918 C   0  0  2  0  0  0  0  0  0  0  0  0
  163.7555  153.7581  129.2433 O   0  0  0  0  0  0  0  0  0  0  0  0
  164.8479  152.6077  127.5199 C   0  0  2  0  0  0  0  0  0  0  0  0
  164.9756  151.3165  128.3204 C   0  0  0  0  0  0  0  0  0  0  0  0
  164.5482  150.1807  127.4159 C   0  0  0  0  0  0  0  0  0  0  0  0
  165.3945  150.1168  126.1660 C   0  0  2  0  0  0  0  0  0  0  0  0
  166.7632  149.6615  126.5546 C   0  0  0  0  0  0  0  0  0  0  0  0
  167.7164  149.5674  125.3861 C   0  0  2  0  0  0  0  0  0  0  0  0
  167.7043  150.8667  124.6540 C   0  0  0  0  0  0  0  0  0  0  0  0
  166.3558  151.3794  124.2883 C   0  0  0  0  0  0  0  0  0  0  0  0
  165.4060  151.4600  125.4642 C   0  0  1  0  0  0  0  0  0  0  0  0
  164.0312  151.6973  124.9116 C   0  0  0  0  0  0  0  0  0  0  0  0
  165.8448  152.5609  126.4316 C   0  0  1  0  0  0  0  0  0  0  0  0
  165.9850  153.8419  125.6601 C   0  0  0  0  0  0  0  0  0  0  0  0
  165.9104  155.0630  126.4867 C   0  0  0  0  0  0  0  0  0  0  0  0
  164.8508  155.0599  127.5771 C   0  0  2  0  0  0  0  0  0  0  0  0
  163.4737  155.2933  126.9726 C   0  0  0  0  0  0  0  0  0  0  0  0
  167.3788  148.4664  124.6007 O   0  0  0  0  0  0  0  0  0  0  0  0
  168.2582  147.4265  124.7460 C   0  0  1  0  0  0  0  0  0  0  0  0
  167.6357  146.1732  125.3608 C   0  0  0  0  0  0  0  0  0  0  0  0
  168.8316  145.2776  125.6855 C   0  0  2  0  0  0  0  0  0  0  0  0
  169.7126  145.9227  126.5424 O   0  0  0  0  0  0  0  0  0  0  0  0
  169.5897  145.0060  124.3926 C   0  0  2  0  0  0  0  0  0  0  0  0
  170.8073  144.4020  124.6980 O   0  0  0  0  0  0  0  0  0  0  0  0
  171.8387  144.7651  123.8345 C   0  0  1  0  0  0  0  0  0  0  0  0
  173.1947  144.4113  124.4060 C   0  0  0  0  0  0  0  0  0  0  0  0
  173.8308  143.3934  123.4837 C   0  0  2  0  0  0  0  0  0  0  0  0
  175.0622  142.9623  123.9495 O   0  0  0  0  0  0  0  0  0  0  0  0
  173.9363  144.0554  122.1171 C   0  0  2  0  0  0  0  0  0  0  0  0
  174.6781  145.2113  122.2899 O   0  0  0  0  0  0  0  0  0  0  0  0
  175.6677  145.3801  121.3318 C   0  0  1  0  0  0  0  0  0  0  0  0
  176.1023  146.7993  121.1525 C   0  0  0  0  0  0  0  0  0  0  0  0
  177.4251  146.8033  120.4168 C   0  0  2  0  0  0  0  0  0  0  0  0
  177.2974  146.2650  119.1153 O   0  0  0  0  0  0  0  0  0  0  0  0
  178.0049  146.7831  118.0412 C   0  0  0  0  0  0  0  0  0  0  0  0
  179.4583  147.0921  118.1299 C   0  0  0  0  0  0  0  0  0  0  0  0
  177.3786  146.9904  116.9677 O   0  0  0  0  0  0  0  0  0  0  0  0
  178.4907  146.0381  121.1293 C   0  0  2  0  0  0  0  0  0  0  0  0
  179.4245  145.4725  120.2657 O   0  0  0  0  0  0  0  0  0  0  0  0
  177.8506  145.0080  122.0265 C   0  0  1  0  0  0  0  0  0  0  0  0
  177.6447  145.6123  123.3919 C   0  0  0  0  0  0  0  0  0  0  0  0
  176.6745  144.4913  121.5703 O   0  0  0  0  0  0  0  0  0  0  0  0
  172.5263  144.3182  121.6542 C   0  0  1  0  0  0  0  0  0  0  0  0
  172.2221  143.3007  120.5443 C   0  0  0  0  0  0  0  0  0  0  0  0
  171.5878  144.1099  122.6349 O   0  0  0  0  0  0  0  0  0  0  0  0
  169.9265  146.3284  123.7364 C   0  0  1  0  0  0  0  0  0  0  0  0
  170.6397  146.1228  122.4281 C   0  0  0  0  0  0  0  0  0  0  0  0
  168.7557  147.0494  123.5101 O   0  0  0  0  0  0  0  0  0  0  0  0
  164.1470  157.0166  129.0048 C   0  0  0  0  0  0  0  0  0  0  0  0
  163.9878  158.2394  128.5291 C   0  0  0  0  0  0  0  0  0  0  0  0
  162.8388  158.8516  129.1741 C   0  0  0  0  0  0  0  0  0  0  0  0
  162.3735  160.0244  128.9731 O   0  0  0  0  0  0  0  0  0  0  0  0
  162.3284  157.9298  130.0571 O   0  0  0  0  0  0  0  0  0  0  0  0
  163.0970  156.7518  129.9909 C   0  0  0  0  0  0  0  0  0  0  0  0
  1  2  1  0
  2  3  1  0
  3  4  1  0
  4  5  1  1
  4  6  1  0
  6  7  1  1
  7  8  1  0
  9  8  1  1
  9 10  1  0
 10 11  1  0
 11 12  1  0
 12 13  1  0
 13 14  1  0
 14 15  1  6
 14 16  1  0
 16 17  1  6
 17 18  1  0
 18 19  1  0
 19 20  1  6
 11 21  1  6
 22 21  1  6
 22 23  1  0
 23 24  1  0
 24 25  1  1
 24 26  1  0
 26 27  1  1
 28 27  1  1
 28 29  1  0
 29 30  1  0
 30 31  1  1
 30 32  1  0
 32 33  1  1
 34 33  1  1
 34 35  1  0
 35 36  1  0
 36 37  1  6
 37 38  1  0
 38 39  1  0
 38 40  2  0
 36 41  1  0
 41 42  1  6
 41 43  1  0
 43 44  1  1
 43 45  1  0
 32 46  1  0
 46 47  1  6
 46 48  1  0
 26 49  1  0
 49 50  1  6
 49 51  1  0
  1 52  1  1
 52 53  2  0
 53 54  1  0
 54 55  2  0
 54 56  1  0
 56 57  1  0
 19  1  1  0
 51 22  1  0
 57 52  1  0
 19  4  1  0
 48 28  1  0
 16  6  1  0
 45 34  1  0
 14  9  1  0
M  END
$$$$
