
     RDKit          3D

 57 64  0  0  0  0  0  0  0  0999 V2000
  108.5838  171.0492  144.6186 C   0  0  1  0  0  0  0  0  0  0  0  0
  109.7104  170.8020  145.6206 C   0  0  0  0  0  0  0  0  0  0  0  0
  108.9805  170.6528  146.9650 C   0  0  0  0  0  0  0  0  0  0  0  0
  107.8997  171.7061  146.7921 C   0  0  2  0  0  0  0  0  0  0  0  0
  108.4627  172.9848  146.7749 O   0  0  0  0  0  0  0  0  0  0  0  0
  106.8259  171.6669  147.8097 C   0  0  2  0  0  0  0  0  0  0  0  0
  107.3621  171.9180  149.2146 C   0  0  0  0  0  0  0  0  0  0  0  0
  106.1790  172.2587  150.0950 C   0  0  0  0  0  0  0  0  0  0  0  0
  105.1568  171.1462  150.1074 C   0  0  2  0  0  0  0  0  0  0  0  0
  105.7363  169.9913  150.8569 C   0  0  0  0  0  0  0  0  0  0  0  0
  104.8092  168.8006  150.9309 C   0  0  2  0  0  0  0  0  0  0  0  0
  104.3651  168.4544  149.5498 C   0  0  0  0  0  0  0  0  0  0  0  0
  103.8233  169.5880  148.7519 C   0  0  0  0  0  0  0  0  0  0  0  0
  104.7556  170.7790  148.6928 C   0  0  1  0  0  0  0  0  0  0  0  0
  103.9747  171.9290  148.1274 C   0  0  0  0  0  0  0  0  0  0  0  0
  105.9943  170.4477  147.8585 C   0  0  1  0  0  0  0  0  0  0  0  0
  105.5422  169.9482  146.5162 C   0  0  0  0  0  0  0  0  0  0  0  0
  106.5583  170.0581  145.4506 C   0  0  0  0  0  0  0  0  0  0  0  0
  107.3684  171.3449  145.4394 C   0  0  2  0  0  0  0  0  0  0  0  0
  106.5367  172.4847  144.8691 C   0  0  0  0  0  0  0  0  0  0  0  0
  103.7664  169.0798  151.8127 O   0  0  0  0  0  0  0  0  0  0  0  0
  103.8241  168.3233  152.9529 C   0  0  1  0  0  0  0  0  0  0  0  0
  102.6578  168.5618  153.9115 C   0  0  0  0  0  0  0  0  0  0  0  0
  103.0754  167.8507  155.1990 C   0  0  2  0  0  0  0  0  0  0  0  0
  104.2791  168.3541  155.6724 O   0  0  0  0  0  0  0  0  0  0  0  0
  103.3055  166.3795  154.8788 C   0  0  2  0  0  0  0  0  0  0  0  0
  103.9172  165.7671  155.9703 O   0  0  0  0  0  0  0  0  0  0  0  0
  104.1172  166.6268  157.0485 C   0  0  1  0  0  0  0  0  0  0  0  0
  104.1166  165.8796  158.3647 C   0  0  0  0  0  0  0  0  0  0  0  0
  105.4876  166.0415  158.9857 C   0  0  2  0  0  0  0  0  0  0  0  0
  105.6077  165.3460  160.1777 O   0  0  0  0  0  0  0  0  0  0  0  0
  105.7035  167.5367  159.1718 C   0  0  2  0  0  0  0  0  0  0  0  0
  104.6621  167.9952  159.9601 O   0  0  0  0  0  0  0  0  0  0  0  0
  105.0350  168.2527  161.2717 C   0  0  1  0  0  0  0  0  0  0  0  0
  104.7781  169.6587  161.7103 C   0  0  0  0  0  0  0  0  0  0  0  0
  104.8313  169.7037  163.2223 C   0  0  2  0  0  0  0  0  0  0  0  0
  106.1174  169.3705  163.7071 O   0  0  0  0  0  0  0  0  0  0  0  0
  106.8045  170.2026  164.5778 C   0  0  0  0  0  0  0  0  0  0  0  0
  108.1727  169.8764  165.0653 C   0  0  0  0  0  0  0  0  0  0  0  0
  106.2346  171.2614  164.9545 O   0  0  0  0  0  0  0  0  0  0  0  0
  103.8443  168.7881  163.8676 C   0  0  2  0  0  0  0  0  0  0  0  0
  104.2729  168.3092  165.1024 O   0  0  0  0  0  0  0  0  0  0  0  0
  103.5014  167.6711  162.9136 C   0  0  1  0  0  0  0  0  0  0  0  0
  102.2986  168.0770  162.1009 C   0  0  0  0  0  0  0  0  0  0  0  0
  104.5108  167.2882  162.0812 O   0  0  0  0  0  0  0  0  0  0  0  0
  105.7181  168.1462  157.7935 C   0  0  1  0  0  0  0  0  0  0  0  0
  107.1761  168.5167  157.4827 C   0  0  0  0  0  0  0  0  0  0  0  0
  105.3259  167.2704  156.8111 O   0  0  0  0  0  0  0  0  0  0  0  0
  104.2878  166.2769  153.7310 C   0  0  1  0  0  0  0  0  0  0  0  0
  104.5218  164.8436  153.3391 C   0  0  0  0  0  0  0  0  0  0  0  0
  103.7960  166.9768  152.6311 O   0  0  0  0  0  0  0  0  0  0  0  0
  108.9676  172.1072  143.6440 C   0  0  0  0  0  0  0  0  0  0  0  0
  110.1180  172.0612  142.9947 C   0  0  0  0  0  0  0  0  0  0  0  0
  110.2158  173.2203  142.1240 C   0  0  0  0  0  0  0  0  0  0  0  0
  111.1798  173.5192  141.3405 O   0  0  0  0  0  0  0  0  0  0  0  0
  109.0663  173.9550  142.2933 O   0  0  0  0  0  0  0  0  0  0  0  0
  108.2355  173.3046  143.2256 C   0  0  0  0  0  0  0  0  0  0  0  0
  1  2  1  0
  2  3  1  0
  3  4  1  0
  4  5  1  6
  4  6  1  0
  6  7  1  1
  7  8  1  0
  9  8  1  6
  9 10  1  0
 10 11  1  0
 11 12  1  0
 12 13  1  0
 13 14  1  0
 14 15  1  6
 14 16  1  0
 16 17  1  6
 17 18  1  0
 18 19  1  0
 19 20  1  6
 11 21  1  1
 22 21  1  6
 22 23  1  0
 23 24  1  0
 24 25  1  6
 24 26  1  0
 26 27  1  1
 28 27  1  6
 28 29  1  0
 29 30  1  0
 30 31  1  1
 30 32  1  0
 32 33  1  1
 34 33  1  6
 34 35  1  0
 35 36  1  0
 36 37  1  6
 37 38  1  0
 38 39  1  0
 38 40  2  0
 36 41  1  0
 41 42  1  1
 41 43  1  0
 43 44  1  6
 43 45  1  0
 32 46  1  0
 46 47  1  6
 46 48  1  0
 26 49  1  0
 49 50  1  6
 49 51  1  0
  1 52  1  6
 52 53  2  0
 53 54  1  0
 54 55  2  0
 54 56  1  0
 56 57  1  0
 19  1  1  0
 51 22  1  0
 57 52  1  0
 19  4  1  0
 48 28  1  0
 16  6  1  0
 45 34  1  0
 14  9  1  0
M  END
$$$$
