
     RDKit          3D

 57 64  0  0  0  0  0  0  0  0999 V2000
  117.3077  167.8973  140.9775 C   0  0  1  0  0  0  0  0  0  0  0  0
  115.8228  167.7332  140.6578 C   0  0  0  0  0  0  0  0  0  0  0  0
  115.2396  167.1028  141.9326 C   0  0  0  0  0  0  0  0  0  0  0  0
  116.3758  166.1646  142.3016 C   0  0  2  0  0  0  0  0  0  0  0  0
  116.4897  165.1410  141.3573 O   0  0  0  0  0  0  0  0  0  0  0  0
  116.2730  165.5653  143.6507 C   0  0  2  0  0  0  0  0  0  0  0  0
  115.0233  164.7048  143.7989 C   0  0  0  0  0  0  0  0  0  0  0  0
  115.2158  163.8365  145.0235 C   0  0  0  0  0  0  0  0  0  0  0  0
  115.4385  164.6680  146.2651 C   0  0  2  0  0  0  0  0  0  0  0  0
  114.1523  165.3469  146.6063 C   0  0  0  0  0  0  0  0  0  0  0  0
  114.2465  166.2253  147.8319 C   0  0  2  0  0  0  0  0  0  0  0  0
  115.3910  167.1658  147.6588 C   0  0  0  0  0  0  0  0  0  0  0  0
  116.6821  166.5339  147.2729 C   0  0  0  0  0  0  0  0  0  0  0  0
  116.5742  165.6483  146.0501 C   0  0  1  0  0  0  0  0  0  0  0  0
  117.8467  164.8583  145.9578 C   0  0  0  0  0  0  0  0  0  0  0  0
  116.3182  166.4917  144.7998 C   0  0  1  0  0  0  0  0  0  0  0  0
  117.3869  167.5432  144.7102 C   0  0  0  0  0  0  0  0  0  0  0  0
  117.5833  168.0994  143.3566 C   0  0  0  0  0  0  0  0  0  0  0  0
  117.5472  167.0939  142.2167 C   0  0  2  0  0  0  0  0  0  0  0  0
  118.8503  166.3094  142.1662 C   0  0  0  0  0  0  0  0  0  0  0  0
  114.3326  165.4249  148.9698 O   0  0  0  0  0  0  0  0  0  0  0  0
  113.1044  165.0323  149.4315 C   0  0  1  0  0  0  0  0  0  0  0  0
  113.0859  163.6179  150.0106 C   0  0  0  0  0  0  0  0  0  0  0  0
  111.6006  163.3011  150.1871 C   0  0  2  0  0  0  0  0  0  0  0  0
  110.9278  163.4014  148.9772 O   0  0  0  0  0  0  0  0  0  0  0  0
  110.9971  164.3449  151.1178 C   0  0  2  0  0  0  0  0  0  0  0  0
  109.6095  164.2229  151.0985 O   0  0  0  0  0  0  0  0  0  0  0  0
  109.0025  164.6047  152.2931 C   0  0  1  0  0  0  0  0  0  0  0  0
  107.4936  164.5282  152.2009 C   0  0  0  0  0  0  0  0  0  0  0  0
  107.0242  163.4924  153.1999 C   0  0  2  0  0  0  0  0  0  0  0  0
  105.6519  163.3078  153.1570 O   0  0  0  0  0  0  0  0  0  0  0  0
  107.4947  163.9671  154.5675 C   0  0  2  0  0  0  0  0  0  0  0  0
  106.9579  165.2287  154.7584 O   0  0  0  0  0  0  0  0  0  0  0  0
  106.2437  165.3510  155.9419 C   0  0  1  0  0  0  0  0  0  0  0  0
  106.6253  166.5428  156.7599 C   0  0  0  0  0  0  0  0  0  0  0  0
  105.5323  166.7927  157.7767 C   0  0  2  0  0  0  0  0  0  0  0  0
  105.4118  165.7158  158.6854 O   0  0  0  0  0  0  0  0  0  0  0  0
  106.2985  165.5498  159.7383 C   0  0  0  0  0  0  0  0  0  0  0  0
  107.6151  166.2433  159.7771 C   0  0  0  0  0  0  0  0  0  0  0  0
  105.9590  164.7844  160.6799 O   0  0  0  0  0  0  0  0  0  0  0  0
  104.1956  167.0198  157.1517 C   0  0  2  0  0  0  0  0  0  0  0  0
  103.1401  166.6018  157.9572 O   0  0  0  0  0  0  0  0  0  0  0  0
  104.1635  166.3690  155.7912 C   0  0  1  0  0  0  0  0  0  0  0  0
  104.5998  167.3769  154.7589 C   0  0  0  0  0  0  0  0  0  0  0  0
  104.9117  165.2356  155.6721 O   0  0  0  0  0  0  0  0  0  0  0  0
  109.0014  163.9618  154.5320 C   0  0  1  0  0  0  0  0  0  0  0  0
  109.4655  162.7679  155.3799 C   0  0  0  0  0  0  0  0  0  0  0  0
  109.5117  163.7611  153.2730 O   0  0  0  0  0  0  0  0  0  0  0  0
  111.3081  165.7233  150.5735 C   0  0  1  0  0  0  0  0  0  0  0  0
  110.7734  166.8005  151.4770 C   0  0  0  0  0  0  0  0  0  0  0  0
  112.6874  165.8757  150.4475 O   0  0  0  0  0  0  0  0  0  0  0  0
  118.1443  167.5237  139.8040 C   0  0  0  0  0  0  0  0  0  0  0  0
  118.3740  168.3777  138.8218 C   0  0  0  0  0  0  0  0  0  0  0  0
  119.2114  167.7355  137.8232 C   0  0  0  0  0  0  0  0  0  0  0  0
  119.6439  168.2443  136.7340 O   0  0  0  0  0  0  0  0  0  0  0  0
  119.4630  166.4577  138.2635 O   0  0  0  0  0  0  0  0  0  0  0  0
  118.8314  166.2649  139.5071 C   0  0  0  0  0  0  0  0  0  0  0  0
  1  2  1  0
  2  3  1  0
  3  4  1  0
  4  5  1  6
  4  6  1  0
  6  7  1  6
  7  8  1  0
  9  8  1  6
  9 10  1  0
 10 11  1  0
 11 12  1  0
 12 13  1  0
 13 14  1  0
 14 15  1  6
 14 16  1  0
 16 17  1  6
 17 18  1  0
 18 19  1  0
 19 20  1  6
 11 21  1  1
 22 21  1  1
 22 23  1  0
 23 24  1  0
 24 25  1  6
 24 26  1  0
 26 27  1  6
 28 27  1  6
 28 29  1  0
 29 30  1  0
 30 31  1  1
 30 32  1  0
 32 33  1  6
 34 33  1  6
 34 35  1  0
 35 36  1  0
 36 37  1  1
 37 38  1  0
 38 39  1  0
 38 40  2  0
 36 41  1  0
 41 42  1  1
 41 43  1  0
 43 44  1  6
 43 45  1  0
 32 46  1  0
 46 47  1  1
 46 48  1  0
 26 49  1  0
 49 50  1  1
 49 51  1  0
  1 52  1  6
 52 53  2  0
 53 54  1  0
 54 55  2  0
 54 56  1  0
 56 57  1  0
 19  1  1  0
 51 22  1  0
 57 52  1  0
 19  4  1  0
 48 28  1  0
 16  6  1  0
 45 34  1  0
 14  9  1  0
M  END
$$$$
