
     RDKit          3D

 57 64  0  0  0  0  0  0  0  0999 V2000
  137.0777  135.8171  132.5888 C   0  0  1  0  0  0  0  0  0  0  0  0
  136.5919  135.0199  133.7983 C   0  0  0  0  0  0  0  0  0  0  0  0
  135.1548  135.5200  134.0152 C   0  0  0  0  0  0  0  0  0  0  0  0
  135.3415  136.9933  133.6960 C   0  0  2  0  0  0  0  0  0  0  0  0
  136.1364  137.6063  134.6680 O   0  0  0  0  0  0  0  0  0  0  0  0
  134.0849  137.7608  133.5480 C   0  0  2  0  0  0  0  0  0  0  0  0
  133.2641  137.7645  134.8328 C   0  0  0  0  0  0  0  0  0  0  0  0
  132.2439  138.8761  134.7134 C   0  0  0  0  0  0  0  0  0  0  0  0
  131.3488  138.6823  133.5117 C   0  0  2  0  0  0  0  0  0  0  0  0
  130.4564  137.5149  133.7807 C   0  0  0  0  0  0  0  0  0  0  0  0
  129.5137  137.2076  132.6407 C   0  0  2  0  0  0  0  0  0  0  0  0
  130.3088  137.0754  131.3858 C   0  0  0  0  0  0  0  0  0  0  0  0
  131.2456  138.1970  131.1039 C   0  0  0  0  0  0  0  0  0  0  0  0
  132.1784  138.5029  132.2561 C   0  0  1  0  0  0  0  0  0  0  0  0
  132.8416  139.8153  131.9567 C   0  0  0  0  0  0  0  0  0  0  0  0
  133.1869  137.3680  132.4435 C   0  0  1  0  0  0  0  0  0  0  0  0
  133.8800  137.1283  131.1329 C   0  0  0  0  0  0  0  0  0  0  0  0
  135.1844  136.4463  131.2484 C   0  0  0  0  0  0  0  0  0  0  0  0
  136.0733  136.9084  132.3922 C   0  0  2  0  0  0  0  0  0  0  0  0
  136.7164  138.2449  132.0512 C   0  0  0  0  0  0  0  0  0  0  0  0
  128.5194  138.1830  132.5863 O   0  0  0  0  0  0  0  0  0  0  0  0
  127.3955  137.8285  133.2840 C   0  0  1  0  0  0  0  0  0  0  0  0
  126.9142  136.4063  132.9977 C   0  0  0  0  0  0  0  0  0  0  0  0
  125.5294  136.3390  133.6424 C   0  0  2  0  0  0  0  0  0  0  0  0
  124.6920  137.3122  133.1150 O   0  0  0  0  0  0  0  0  0  0  0  0
  125.6791  136.6406  135.1279 C   0  0  2  0  0  0  0  0  0  0  0  0
  124.4152  136.8250  135.6838 O   0  0  0  0  0  0  0  0  0  0  0  0
  123.3750  136.5816  134.7894 C   0  0  1  0  0  0  0  0  0  0  0  0
  122.0557  137.1080  135.3122 C   0  0  0  0  0  0  0  0  0  0  0  0
  121.5811  138.1851  134.3603 C   0  0  2  0  0  0  0  0  0  0  0  0
  120.3985  138.7715  134.7809 O   0  0  0  0  0  0  0  0  0  0  0  0
  121.4380  137.5239  132.9967 C   0  0  2  0  0  0  0  0  0  0  0  0
  120.5531  136.4713  133.1546 O   0  0  0  0  0  0  0  0  0  0  0  0
  119.9840  136.0455  131.9627 C   0  0  1  0  0  0  0  0  0  0  0  0
  118.6353  135.4209  132.1239 C   0  0  0  0  0  0  0  0  0  0  0  0
  117.9628  135.3826  130.7684 C   0  0  2  0  0  0  0  0  0  0  0  0
  118.6697  134.5603  129.8607 O   0  0  0  0  0  0  0  0  0  0  0  0
  119.1263  135.0445  128.6443 C   0  0  0  0  0  0  0  0  0  0  0  0
  119.0540  134.2359  127.3966 C   0  0  0  0  0  0  0  0  0  0  0  0
  119.6131  136.2064  128.6176 O   0  0  0  0  0  0  0  0  0  0  0  0
  117.8196  136.7340  130.1504 C   0  0  2  0  0  0  0  0  0  0  0  0
  117.8477  136.7018  128.7590 O   0  0  0  0  0  0  0  0  0  0  0  0
  118.8696  137.6564  130.7181 C   0  0  1  0  0  0  0  0  0  0  0  0
  118.2988  138.3617  131.9217 C   0  0  0  0  0  0  0  0  0  0  0  0
  120.0484  137.0585  131.0517 O   0  0  0  0  0  0  0  0  0  0  0  0
  122.8186  137.0826  132.5835 C   0  0  1  0  0  0  0  0  0  0  0  0
  123.2824  138.0403  131.4757 C   0  0  0  0  0  0  0  0  0  0  0  0
  123.7437  137.1853  133.5932 O   0  0  0  0  0  0  0  0  0  0  0  0
  126.4080  137.9582  135.2881 C   0  0  1  0  0  0  0  0  0  0  0  0
  126.6253  138.2890  136.7393 C   0  0  0  0  0  0  0  0  0  0  0  0
  127.6423  137.8907  134.6451 O   0  0  0  0  0  0  0  0  0  0  0  0
  138.4819  136.2709  132.7857 C   0  0  0  0  0  0  0  0  0  0  0  0
  139.3390  135.5671  133.5046 C   0  0  0  0  0  0  0  0  0  0  0  0
  140.6185  136.2552  133.5217 C   0  0  0  0  0  0  0  0  0  0  0  0
  141.6893  135.8816  134.1101 O   0  0  0  0  0  0  0  0  0  0  0  0
  140.4737  137.4027  132.7786 O   0  0  0  0  0  0  0  0  0  0  0  0
  139.1590  137.4664  132.2786 C   0  0  0  0  0  0  0  0  0  0  0  0
  1  2  1  0
  2  3  1  0
  3  4  1  0
  4  5  1  1
  4  6  1  0
  6  7  1  1
  7  8  1  0
  9  8  1  1
  9 10  1  0
 10 11  1  0
 11 12  1  0
 12 13  1  0
 13 14  1  0
 14 15  1  6
 14 16  1  0
 16 17  1  6
 17 18  1  0
 18 19  1  0
 19 20  1  6
 11 21  1  6
 22 21  1  6
 22 23  1  0
 23 24  1  0
 24 25  1  6
 24 26  1  0
 26 27  1  6
 28 27  1  1
 28 29  1  0
 29 30  1  0
 30 31  1  1
 30 32  1  0
 32 33  1  1
 34 33  1  1
 34 35  1  0
 35 36  1  0
 36 37  1  6
 37 38  1  0
 38 39  1  0
 38 40  2  0
 36 41  1  0
 41 42  1  6
 41 43  1  0
 43 44  1  1
 43 45  1  0
 32 46  1  0
 46 47  1  6
 46 48  1  0
 26 49  1  0
 49 50  1  1
 49 51  1  0
  1 52  1  1
 52 53  2  0
 53 54  1  0
 54 55  2  0
 54 56  1  0
 56 57  1  0
 19  1  1  0
 51 22  1  0
 57 52  1  0
 19  4  1  0
 48 28  1  0
 16  6  1  0
 45 34  1  0
 14  9  1  0
M  END
$$$$
