
     RDKit          3D

 57 64  0  0  0  0  0  0  0  0999 V2000
  169.4830  166.1927  111.0136 C   0  0  1  0  0  0  0  0  0  0  0  0
  168.7150  164.9834  110.4827 C   0  0  0  0  0  0  0  0  0  0  0  0
  169.7438  164.2494  109.6079 C   0  0  0  0  0  0  0  0  0  0  0  0
  170.4504  165.4402  108.9834 C   0  0  2  0  0  0  0  0  0  0  0  0
  169.5899  166.1186  108.1164 O   0  0  0  0  0  0  0  0  0  0  0  0
  171.7001  165.1125  108.2618 C   0  0  2  0  0  0  0  0  0  0  0  0
  171.4506  164.1751  107.0856 C   0  0  0  0  0  0  0  0  0  0  0  0
  172.6746  164.2302  106.1970 C   0  0  0  0  0  0  0  0  0  0  0  0
  173.9230  163.8237  106.9447 C   0  0  2  0  0  0  0  0  0  0  0  0
  173.8442  162.3570  107.2173 C   0  0  0  0  0  0  0  0  0  0  0  0
  175.0372  161.8250  107.9765 C   0  0  2  0  0  0  0  0  0  0  0  0
  175.2300  162.6513  109.2032 C   0  0  0  0  0  0  0  0  0  0  0  0
  175.2678  164.1224  108.9809 C   0  0  0  0  0  0  0  0  0  0  0  0
  174.0732  164.6431  108.2108 C   0  0  1  0  0  0  0  0  0  0  0  0
  174.3842  166.0543  107.8060 C   0  0  0  0  0  0  0  0  0  0  0  0
  172.8050  164.5451  109.0605 C   0  0  1  0  0  0  0  0  0  0  0  0
  173.0534  165.2457  110.3656 C   0  0  0  0  0  0  0  0  0  0  0  0
  171.8288  165.6723  111.0716 C   0  0  0  0  0  0  0  0  0  0  0  0
  170.7355  166.2677  110.1987 C   0  0  2  0  0  0  0  0  0  0  0  0
  171.0957  167.6926  109.8037 C   0  0  0  0  0  0  0  0  0  0  0  0
  176.1455  161.7898  107.1320 O   0  0  0  0  0  0  0  0  0  0  0  0
  176.7656  160.5687  107.1276 C   0  0  1  0  0  0  0  0  0  0  0  0
  175.9389  159.4589  106.4787 C   0  0  0  0  0  0  0  0  0  0  0  0
  176.6828  158.1729  106.8400 C   0  0  2  0  0  0  0  0  0  0  0  0
  176.7903  158.0356  108.2170 O   0  0  0  0  0  0  0  0  0  0  0  0
  178.1007  158.2716  106.2924 C   0  0  2  0  0  0  0  0  0  0  0  0
  178.8632  157.2295  106.8150 O   0  0  0  0  0  0  0  0  0  0  0  0
  178.5772  155.9917  106.2428 C   0  0  1  0  0  0  0  0  0  0  0  0
  179.6512  154.9719  106.5548 C   0  0  0  0  0  0  0  0  0  0  0  0
  179.0133  153.8675  107.3701 C   0  0  2  0  0  0  0  0  0  0  0  0
  179.9310  152.9033  107.7539 O   0  0  0  0  0  0  0  0  0  0  0  0
  177.8984  153.2862  106.5121 C   0  0  2  0  0  0  0  0  0  0  0  0
  178.4837  152.8596  105.3325 O   0  0  0  0  0  0  0  0  0  0  0  0
  178.2943  151.5083  105.0799 C   0  0  1  0  0  0  0  0  0  0  0  0
  179.1680  150.9662  103.9945 C   0  0  0  0  0  0  0  0  0  0  0  0
  179.1718  149.4560  104.0953 C   0  0  2  0  0  0  0  0  0  0  0  0
  177.8842  148.9168  103.8683 O   0  0  0  0  0  0  0  0  0  0  0  0
  177.6664  147.9278  102.9213 C   0  0  0  0  0  0  0  0  0  0  0  0
  178.7034  147.5510  101.9220 C   0  0  0  0  0  0  0  0  0  0  0  0
  176.5499  147.3436  102.9250 O   0  0  0  0  0  0  0  0  0  0  0  0
  179.6513  148.9615  105.4199 C   0  0  2  0  0  0  0  0  0  0  0  0
  179.0779  147.7475  105.7876 O   0  0  0  0  0  0  0  0  0  0  0  0
  179.4327  150.0310  106.4611 C   0  0  1  0  0  0  0  0  0  0  0  0
  180.6721  150.8840  106.5505 C   0  0  0  0  0  0  0  0  0  0  0  0
  178.3424  150.8239  106.2587 O   0  0  0  0  0  0  0  0  0  0  0  0
  176.8895  154.3876  106.3104 C   0  0  1  0  0  0  0  0  0  0  0  0
  175.6712  154.0443  107.1808 C   0  0  0  0  0  0  0  0  0  0  0  0
  177.3351  155.6139  106.7386 O   0  0  0  0  0  0  0  0  0  0  0  0
  178.7318  159.5520  106.7975 C   0  0  1  0  0  0  0  0  0  0  0  0
  180.1227  159.7273  106.2523 C   0  0  0  0  0  0  0  0  0  0  0  0
  177.9506  160.6406  106.4149 O   0  0  0  0  0  0  0  0  0  0  0  0
  168.6303  167.4129  110.9855 C   0  0  0  0  0  0  0  0  0  0  0  0
  167.8270  167.6687  109.9677 C   0  0  0  0  0  0  0  0  0  0  0  0
  167.1309  168.9193  110.2177 C   0  0  0  0  0  0  0  0  0  0  0  0
  166.2728  169.4906  109.4629 O   0  0  0  0  0  0  0  0  0  0  0  0
  167.5653  169.3910  111.4337 O   0  0  0  0  0  0  0  0  0  0  0  0
  168.4989  168.4858  111.9736 C   0  0  0  0  0  0  0  0  0  0  0  0
  1  2  1  0
  2  3  1  0
  3  4  1  0
  4  5  1  6
  4  6  1  0
  6  7  1  6
  7  8  1  0
  9  8  1  1
  9 10  1  0
 10 11  1  0
 11 12  1  0
 12 13  1  0
 13 14  1  0
 14 15  1  6
 14 16  1  0
 16 17  1  1
 17 18  1  0
 18 19  1  0
 19 20  1  6
 11 21  1  6
 22 21  1  6
 22 23  1  0
 23 24  1  0
 24 25  1  1
 24 26  1  0
 26 27  1  1
 28 27  1  1
 28 29  1  0
 29 30  1  0
 30 31  1  6
 30 32  1  0
 32 33  1  6
 34 33  1  1
 34 35  1  0
 35 36  1  0
 36 37  1  1
 37 38  1  0
 38 39  1  0
 38 40  2  0
 36 41  1  0
 41 42  1  1
 41 43  1  0
 43 44  1  6
 43 45  1  0
 32 46  1  0
 46 47  1  1
 46 48  1  0
 26 49  1  0
 49 50  1  6
 49 51  1  0
  1 52  1  6
 52 53  2  0
 53 54  1  0
 54 55  2  0
 54 56  1  0
 56 57  1  0
 19  1  1  0
 51 22  1  0
 57 52  1  0
 19  4  1  0
 48 28  1  0
 16  6  1  0
 45 34  1  0
 14  9  1  0
M  END
$$$$
