
     RDKit          3D

 57 64  0  0  0  0  0  0  0  0999 V2000
  195.6214  132.9349  133.4139 C   0  0  1  0  0  0  0  0  0  0  0  0
  196.0735  131.6590  134.1223 C   0  0  0  0  0  0  0  0  0  0  0  0
  197.5732  131.5696  133.7973 C   0  0  0  0  0  0  0  0  0  0  0  0
  197.5571  132.0599  132.3597 C   0  0  2  0  0  0  0  0  0  0  0  0
  196.9071  131.1368  131.5365 O   0  0  0  0  0  0  0  0  0  0  0  0
  198.8902  132.3574  131.7901 C   0  0  2  0  0  0  0  0  0  0  0  0
  199.7806  131.1207  131.7465 C   0  0  0  0  0  0  0  0  0  0  0  0
  200.9254  131.4218  130.8032 C   0  0  0  0  0  0  0  0  0  0  0  0
  201.7142  132.6289  131.2540 C   0  0  2  0  0  0  0  0  0  0  0  0
  202.4650  132.2576  132.4911 C   0  0  0  0  0  0  0  0  0  0  0  0
  203.2902  133.3916  133.0528 C   0  0  2  0  0  0  0  0  0  0  0  0
  202.4105  134.5840  133.2229 C   0  0  0  0  0  0  0  0  0  0  0  0
  201.6093  134.9605  132.0265 C   0  0  0  0  0  0  0  0  0  0  0  0
  200.7944  133.8146  131.4660 C   0  0  1  0  0  0  0  0  0  0  0  0
  200.2872  134.2442  130.1206 C   0  0  0  0  0  0  0  0  0  0  0  0
  199.6624  133.4436  132.4259 C   0  0  1  0  0  0  0  0  0  0  0  0
  198.8666  134.6825  132.7219 C   0  0  0  0  0  0  0  0  0  0  0  0
  197.4952  134.4256  133.2048 C   0  0  0  0  0  0  0  0  0  0  0  0
  196.7431  133.3094  132.4975 C   0  0  2  0  0  0  0  0  0  0  0  0
  196.2565  133.7841  131.1358 C   0  0  0  0  0  0  0  0  0  0  0  0
  204.3958  133.6104  132.2325 O   0  0  0  0  0  0  0  0  0  0  0  0
  205.5708  133.6593  132.9345 C   0  0  1  0  0  0  0  0  0  0  0  0
  206.3260  132.3309  132.9672 C   0  0  0  0  0  0  0  0  0  0  0  0
  207.4187  132.5431  134.0153 C   0  0  2  0  0  0  0  0  0  0  0  0
  206.8660  132.8839  135.2421 O   0  0  0  0  0  0  0  0  0  0  0  0
  208.2805  133.7194  133.5753 C   0  0  2  0  0  0  0  0  0  0  0  0
  209.1225  134.0832  134.6237 O   0  0  0  0  0  0  0  0  0  0  0  0
  210.4646  133.7974  134.3819 C   0  0  1  0  0  0  0  0  0  0  0  0
  211.3617  134.3931  135.4456 C   0  0  0  0  0  0  0  0  0  0  0  0
  212.0532  133.2496  136.1566 C   0  0  2  0  0  0  0  0  0  0  0  0
  212.8631  133.6895  137.1908 O   0  0  0  0  0  0  0  0  0  0  0  0
  212.8408  132.4943  135.0953 C   0  0  2  0  0  0  0  0  0  0  0  0
  213.7017  133.4077  134.5118 O   0  0  0  0  0  0  0  0  0  0  0  0
  214.7902  132.8176  133.8852 C   0  0  1  0  0  0  0  0  0  0  0  0
  215.1398  133.4342  132.5689 C   0  0  0  0  0  0  0  0  0  0  0  0
  216.5415  133.0009  132.1969 C   0  0  2  0  0  0  0  0  0  0  0  0
  216.6198  131.6016  132.0074 O   0  0  0  0  0  0  0  0  0  0  0  0
  216.2227  131.0050  130.8205 C   0  0  0  0  0  0  0  0  0  0  0  0
  215.6894  131.7981  129.6792 C   0  0  0  0  0  0  0  0  0  0  0  0
  216.3251  129.7525  130.7271 O   0  0  0  0  0  0  0  0  0  0  0  0
  217.5607  133.3852  133.2179 C   0  0  2  0  0  0  0  0  0  0  0  0
  218.6352  132.5020  133.2734 O   0  0  0  0  0  0  0  0  0  0  0  0
  216.8883  133.5459  134.5587 C   0  0  1  0  0  0  0  0  0  0  0  0
  216.4671  134.9838  134.7229 C   0  0  0  0  0  0  0  0  0  0  0  0
  215.8204  132.7265  134.7744 O   0  0  0  0  0  0  0  0  0  0  0  0
  211.8316  131.9283  134.1295 C   0  0  1  0  0  0  0  0  0  0  0  0
  211.7616  130.4160  134.3896 C   0  0  0  0  0  0  0  0  0  0  0  0
  210.5621  132.4122  134.3290 O   0  0  0  0  0  0  0  0  0  0  0  0
  207.3844  134.9128  133.3188 C   0  0  1  0  0  0  0  0  0  0  0  0
  208.1769  136.0971  132.8371 C   0  0  0  0  0  0  0  0  0  0  0  0
  206.4287  134.5822  132.3603 O   0  0  0  0  0  0  0  0  0  0  0  0
  194.3011  132.7334  132.7562 C   0  0  0  0  0  0  0  0  0  0  0  0
  193.1931  133.2440  133.2646 C   0  0  0  0  0  0  0  0  0  0  0  0
  192.0720  132.8809  132.4147 C   0  0  0  0  0  0  0  0  0  0  0  0
  190.8440  133.1926  132.5799 O   0  0  0  0  0  0  0  0  0  0  0  0
  192.5730  132.1277  131.3795 O   0  0  0  0  0  0  0  0  0  0  0  0
  193.9680  132.0078  131.5284 C   0  0  0  0  0  0  0  0  0  0  0  0
  1  2  1  0
  2  3  1  0
  3  4  1  0
  4  5  1  6
  4  6  1  0
  6  7  1  1
  7  8  1  0
  9  8  1  1
  9 10  1  0
 10 11  1  0
 11 12  1  0
 12 13  1  0
 13 14  1  0
 14 15  1  6
 14 16  1  0
 16 17  1  6
 17 18  1  0
 18 19  1  0
 19 20  1  6
 11 21  1  6
 22 21  1  6
 22 23  1  0
 23 24  1  0
 24 25  1  1
 24 26  1  0
 26 27  1  1
 28 27  1  1
 28 29  1  0
 29 30  1  0
 30 31  1  1
 30 32  1  0
 32 33  1  6
 34 33  1  1
 34 35  1  0
 35 36  1  0
 36 37  1  1
 37 38  1  0
 38 39  1  0
 38 40  2  0
 36 41  1  0
 41 42  1  1
 41 43  1  0
 43 44  1  6
 43 45  1  0
 32 46  1  0
 46 47  1  1
 46 48  1  0
 26 49  1  0
 49 50  1  6
 49 51  1  0
  1 52  1  6
 52 53  2  0
 53 54  1  0
 54 55  2  0
 54 56  1  0
 56 57  1  0
 19  1  1  0
 51 22  1  0
 57 52  1  0
 19  4  1  0
 48 28  1  0
 16  6  1  0
 45 34  1  0
 14  9  1  0
M  END
$$$$
