
     RDKit          3D

 57 64  0  0  0  0  0  0  0  0999 V2000
  127.9987  148.4603  134.9899 C   0  0  1  0  0  0  0  0  0  0  0  0
  128.9353  148.8085  133.8342 C   0  0  0  0  0  0  0  0  0  0  0  0
  129.6125  147.4713  133.4940 C   0  0  0  0  0  0  0  0  0  0  0  0
  129.7861  146.9048  134.8927 C   0  0  2  0  0  0  0  0  0  0  0  0
  130.7156  147.6595  135.6130 O   0  0  0  0  0  0  0  0  0  0  0  0
  130.1826  145.4798  134.9407 C   0  0  2  0  0  0  0  0  0  0  0  0
  131.5345  145.2413  134.2775 C   0  0  0  0  0  0  0  0  0  0  0  0
  132.0247  143.8821  134.7281 C   0  0  0  0  0  0  0  0  0  0  0  0
  131.0504  142.7887  134.3568 C   0  0  2  0  0  0  0  0  0  0  0  0
  131.0867  142.6184  132.8731 C   0  0  0  0  0  0  0  0  0  0  0  0
  130.1401  141.5538  132.3700 C   0  0  2  0  0  0  0  0  0  0  0  0
  128.7769  141.8346  132.9061 C   0  0  0  0  0  0  0  0  0  0  0  0
  128.7036  142.0566  134.3760 C   0  0  0  0  0  0  0  0  0  0  0  0
  129.6631  143.1177  134.8705 C   0  0  1  0  0  0  0  0  0  0  0  0
  129.6977  143.0248  136.3679 C   0  0  0  0  0  0  0  0  0  0  0  0
  129.2296  144.5007  134.3809 C   0  0  1  0  0  0  0  0  0  0  0  0
  127.8004  144.7208  134.7866 C   0  0  0  0  0  0  0  0  0  0  0  0
  127.3933  146.1391  134.8409 C   0  0  0  0  0  0  0  0  0  0  0  0
  128.4080  147.0957  135.4468 C   0  0  2  0  0  0  0  0  0  0  0  0
  128.4171  146.9613  136.9627 C   0  0  0  0  0  0  0  0  0  0  0  0
  130.6375  140.2957  132.7058 O   0  0  0  0  0  0  0  0  0  0  0  0
  131.0197  139.5706  131.6086 C   0  0  1  0  0  0  0  0  0  0  0  0
  130.5252  138.1244  131.6216 C   0  0  0  0  0  0  0  0  0  0  0  0
  131.2931  137.4521  130.4832 C   0  0  2  0  0  0  0  0  0  0  0  0
  132.6627  137.5595  130.6813 O   0  0  0  0  0  0  0  0  0  0  0  0
  130.9731  138.1905  129.1900 C   0  0  2  0  0  0  0  0  0  0  0  0
  131.8414  137.7553  128.1914 O   0  0  0  0  0  0  0  0  0  0  0  0
  131.2114  137.0175  127.1913 C   0  0  1  0  0  0  0  0  0  0  0  0
  132.1964  136.1585  126.4279 C   0  0  0  0  0  0  0  0  0  0  0  0
  131.8148  134.7111  126.6533 C   0  0  2  0  0  0  0  0  0  0  0  0
  132.6927  133.8359  126.0347 O   0  0  0  0  0  0  0  0  0  0  0  0
  130.3918  134.5542  126.1362 C   0  0  2  0  0  0  0  0  0  0  0  0
  130.4052  134.9407  124.8071 O   0  0  0  0  0  0  0  0  0  0  0  0
  130.0626  133.9195  123.9322 C   0  0  1  0  0  0  0  0  0  0  0  0
  129.5580  134.3987  122.6089 C   0  0  0  0  0  0  0  0  0  0  0  0
  129.6146  133.2448  121.6310 C   0  0  2  0  0  0  0  0  0  0  0  0
  128.7552  132.1912  122.0202 O   0  0  0  0  0  0  0  0  0  0  0  0
  127.6222  131.8688  121.2888 C   0  0  0  0  0  0  0  0  0  0  0  0
  127.2570  132.5930  120.0406 C   0  0  0  0  0  0  0  0  0  0  0  0
  126.8944  130.9312  121.7119 O   0  0  0  0  0  0  0  0  0  0  0  0
  130.9886  132.6833  121.4710 C   0  0  2  0  0  0  0  0  0  0  0  0
  130.9892  131.3260  121.1621 O   0  0  0  0  0  0  0  0  0  0  0  0
  131.7982  132.9843  122.7077 C   0  0  1  0  0  0  0  0  0  0  0  0
  132.5213  134.2919  122.5100 C   0  0  0  0  0  0  0  0  0  0  0  0
  131.0884  133.0227  123.8710 O   0  0  0  0  0  0  0  0  0  0  0  0
  129.5192  135.4281  127.0003 C   0  0  1  0  0  0  0  0  0  0  0  0
  128.7186  134.4931  127.9191 C   0  0  0  0  0  0  0  0  0  0  0  0
  130.2357  136.2587  127.8264 O   0  0  0  0  0  0  0  0  0  0  0  0
  131.2581  139.6648  129.3854 C   0  0  1  0  0  0  0  0  0  0  0  0
  130.9181  140.4549  128.1515 C   0  0  0  0  0  0  0  0  0  0  0  0
  130.5101  140.1472  130.4575 O   0  0  0  0  0  0  0  0  0  0  0  0
  128.0344  149.5199  136.0352 C   0  0  0  0  0  0  0  0  0  0  0  0
  127.2777  150.6000  135.9474 C   0  0  0  0  0  0  0  0  0  0  0  0
  127.5293  151.4482  137.1000 C   0  0  0  0  0  0  0  0  0  0  0  0
  126.9851  152.5733  137.3651 O   0  0  0  0  0  0  0  0  0  0  0  0
  128.4747  150.8160  137.8722 O   0  0  0  0  0  0  0  0  0  0  0  0
  128.8253  149.5947  137.2655 C   0  0  0  0  0  0  0  0  0  0  0  0
  1  2  1  0
  2  3  1  0
  3  4  1  0
  4  5  1  1
  4  6  1  0
  6  7  1  6
  7  8  1  0
  9  8  1  6
  9 10  1  0
 10 11  1  0
 11 12  1  0
 12 13  1  0
 13 14  1  0
 14 15  1  1
 14 16  1  0
 16 17  1  1
 17 18  1  0
 18 19  1  0
 19 20  1  1
 11 21  1  1
 22 21  1  1
 22 23  1  0
 23 24  1  0
 24 25  1  1
 24 26  1  0
 26 27  1  6
 28 27  1  1
 28 29  1  0
 29 30  1  0
 30 31  1  6
 30 32  1  0
 32 33  1  6
 34 33  1  1
 34 35  1  0
 35 36  1  0
 36 37  1  1
 37 38  1  0
 38 39  1  0
 38 40  2  0
 36 41  1  0
 41 42  1  1
 41 43  1  0
 43 44  1  6
 43 45  1  0
 32 46  1  0
 46 47  1  1
 46 48  1  0
 26 49  1  0
 49 50  1  6
 49 51  1  0
  1 52  1  1
 52 53  2  0
 53 54  1  0
 54 55  2  0
 54 56  1  0
 56 57  1  0
 19  1  1  0
 51 22  1  0
 57 52  1  0
 19  4  1  0
 48 28  1  0
 16  6  1  0
 45 34  1  0
 14  9  1  0
M  END
$$$$
