
     RDKit          3D

 57 64  0  0  0  0  0  0  0  0999 V2000
  165.9219  155.9250  131.0620 C   0  0  1  0  0  0  0  0  0  0  0  0
  165.1025  156.2917  129.8258 C   0  0  0  0  0  0  0  0  0  0  0  0
  165.1634  155.0263  128.9556 C   0  0  0  0  0  0  0  0  0  0  0  0
  166.5989  154.6022  129.2139 C   0  0  2  0  0  0  0  0  0  0  0  0
  167.4881  155.5235  128.6545 O   0  0  0  0  0  0  0  0  0  0  0  0
  166.9428  153.2467  128.7298 C   0  0  2  0  0  0  0  0  0  0  0  0
  166.7904  153.1254  127.2177 C   0  0  0  0  0  0  0  0  0  0  0  0
  167.5344  151.8795  126.7877 C   0  0  0  0  0  0  0  0  0  0  0  0
  166.9982  150.6463  127.4763 C   0  0  2  0  0  0  0  0  0  0  0  0
  165.6389  150.3611  126.9260 C   0  0  0  0  0  0  0  0  0  0  0  0
  164.9847  149.1490  127.5469 C   0  0  2  0  0  0  0  0  0  0  0  0
  165.0091  149.3003  129.0305 C   0  0  0  0  0  0  0  0  0  0  0  0
  166.3371  149.6308  129.6154 C   0  0  0  0  0  0  0  0  0  0  0  0
  166.9880  150.8404  128.9793 C   0  0  1  0  0  0  0  0  0  0  0  0
  168.4144  150.8754  129.4440 C   0  0  0  0  0  0  0  0  0  0  0  0
  166.2230  152.1137  129.3452 C   0  0  1  0  0  0  0  0  0  0  0  0
  166.1108  152.1861  130.8412 C   0  0  0  0  0  0  0  0  0  0  0  0
  165.8603  153.5420  131.3691 C   0  0  0  0  0  0  0  0  0  0  0  0
  166.6461  154.6642  130.7095 C   0  0  2  0  0  0  0  0  0  0  0  0
  168.0865  154.6564  131.2005 C   0  0  0  0  0  0  0  0  0  0  0  0
  165.6114  147.9946  127.0805 O   0  0  0  0  0  0  0  0  0  0  0  0
  164.9160  147.3909  126.0667 C   0  0  1  0  0  0  0  0  0  0  0  0
  165.6425  146.1987  125.4445 C   0  0  0  0  0  0  0  0  0  0  0  0
  164.8354  145.8792  124.1859 C   0  0  2  0  0  0  0  0  0  0  0  0
  164.7790  146.9807  123.3433 O   0  0  0  0  0  0  0  0  0  0  0  0
  163.4042  145.5664  124.6030 C   0  0  2  0  0  0  0  0  0  0  0  0
  162.6009  145.5133  123.4661 O   0  0  0  0  0  0  0  0  0  0  0  0
  163.1369  144.7326  122.4441 C   0  0  1  0  0  0  0  0  0  0  0  0
  162.0525  144.0776  121.6159 C   0  0  0  0  0  0  0  0  0  0  0  0
  162.1645  144.6145  120.2050 C   0  0  2  0  0  0  0  0  0  0  0  0
  161.1762  144.1128  119.3739 O   0  0  0  0  0  0  0  0  0  0  0  0
  163.5602  144.2545  119.7155 C   0  0  2  0  0  0  0  0  0  0  0  0
  163.6748  142.8785  119.8135 O   0  0  0  0  0  0  0  0  0  0  0  0
  164.1320  142.2787  118.6486 C   0  0  1  0  0  0  0  0  0  0  0  0
  164.9805  141.0699  118.8818 C   0  0  0  0  0  0  0  0  0  0  0  0
  165.0657  140.2905  117.5871 C   0  0  2  0  0  0  0  0  0  0  0  0
  165.7136  141.0349  116.5741 O   0  0  0  0  0  0  0  0  0  0  0  0
  166.8128  140.5339  115.8935 C   0  0  0  0  0  0  0  0  0  0  0  0
  166.6875  139.4438  114.8874 C   0  0  0  0  0  0  0  0  0  0  0  0
  167.9419  141.0310  116.1500 O   0  0  0  0  0  0  0  0  0  0  0  0
  163.7291  139.8735  117.0688 C   0  0  2  0  0  0  0  0  0  0  0  0
  163.6893  139.7780  115.6807 O   0  0  0  0  0  0  0  0  0  0  0  0
  162.6724  140.8075  117.6040 C   0  0  1  0  0  0  0  0  0  0  0  0
  162.1311  140.2432  118.8926 C   0  0  0  0  0  0  0  0  0  0  0  0
  163.0800  142.0935  117.8006 O   0  0  0  0  0  0  0  0  0  0  0  0
  164.5320  144.9958  120.5973 C   0  0  1  0  0  0  0  0  0  0  0  0
  165.1143  146.1426  119.7574 C   0  0  0  0  0  0  0  0  0  0  0  0
  163.9350  145.5814  121.6867 O   0  0  0  0  0  0  0  0  0  0  0  0
  162.8773  146.7130  125.4400 C   0  0  1  0  0  0  0  0  0  0  0  0
  161.4780  146.4407  125.9200 C   0  0  0  0  0  0  0  0  0  0  0  0
  163.7083  146.9078  126.5415 O   0  0  0  0  0  0  0  0  0  0  0  0
  166.7879  157.0626  131.4773 C   0  0  0  0  0  0  0  0  0  0  0  0
  166.7431  157.5502  132.7050 C   0  0  0  0  0  0  0  0  0  0  0  0
  167.6889  158.6479  132.8123 C   0  0  0  0  0  0  0  0  0  0  0  0
  167.9293  159.3630  133.8434 O   0  0  0  0  0  0  0  0  0  0  0  0
  168.2932  158.7862  131.5853 O   0  0  0  0  0  0  0  0  0  0  0  0
  167.7807  157.8135  130.7057 C   0  0  0  0  0  0  0  0  0  0  0  0
  1  2  1  0
  2  3  1  0
  3  4  1  0
  4  5  1  6
  4  6  1  0
  6  7  1  6
  7  8  1  0
  9  8  1  6
  9 10  1  0
 10 11  1  0
 11 12  1  0
 12 13  1  0
 13 14  1  0
 14 15  1  1
 14 16  1  0
 16 17  1  1
 17 18  1  0
 18 19  1  0
 19 20  1  6
 11 21  1  1
 22 21  1  1
 22 23  1  0
 23 24  1  0
 24 25  1  6
 24 26  1  0
 26 27  1  6
 28 27  1  1
 28 29  1  0
 29 30  1  0
 30 31  1  6
 30 32  1  0
 32 33  1  1
 34 33  1  1
 34 35  1  0
 35 36  1  0
 36 37  1  6
 37 38  1  0
 38 39  1  0
 38 40  2  0
 36 41  1  0
 41 42  1  6
 41 43  1  0
 43 44  1  1
 43 45  1  0
 32 46  1  0
 46 47  1  6
 46 48  1  0
 26 49  1  0
 49 50  1  1
 49 51  1  0
  1 52  1  6
 52 53  2  0
 53 54  1  0
 54 55  2  0
 54 56  1  0
 56 57  1  0
 19  1  1  0
 51 22  1  0
 57 52  1  0
 19  4  1  0
 48 28  1  0
 16  6  1  0
 45 34  1  0
 14  9  1  0
M  END
$$$$
