
     RDKit          3D

 57 64  0  0  0  0  0  0  0  0999 V2000
  128.3464  143.9274  137.1375 C   0  0  1  0  0  0  0  0  0  0  0  0
  128.4258  144.8397  135.9145 C   0  0  0  0  0  0  0  0  0  0  0  0
  129.1057  143.9665  134.8479 C   0  0  0  0  0  0  0  0  0  0  0  0
  130.1133  143.2330  135.7164 C   0  0  2  0  0  0  0  0  0  0  0  0
  131.0822  144.1191  136.1943 O   0  0  0  0  0  0  0  0  0  0  0  0
  130.7878  142.0926  135.0570 C   0  0  2  0  0  0  0  0  0  0  0  0
  131.6001  142.5338  133.8447 C   0  0  0  0  0  0  0  0  0  0  0  0
  132.5482  141.4051  133.5017 C   0  0  0  0  0  0  0  0  0  0  0  0
  131.8035  140.1245  133.2047 C   0  0  2  0  0  0  0  0  0  0  0  0
  131.0908  140.2930  131.9027 C   0  0  0  0  0  0  0  0  0  0  0  0
  130.2928  139.0762  131.4960 C   0  0  2  0  0  0  0  0  0  0  0  0
  129.3945  138.6951  132.6240 C   0  0  0  0  0  0  0  0  0  0  0  0
  130.0579  138.5618  133.9496 C   0  0  0  0  0  0  0  0  0  0  0  0
  130.8627  139.7821  134.3425 C   0  0  1  0  0  0  0  0  0  0  0  0
  131.7006  139.4011  135.5278 C   0  0  0  0  0  0  0  0  0  0  0  0
  129.9351  140.9621  134.6380 C   0  0  1  0  0  0  0  0  0  0  0  0
  128.9279  140.5281  135.6641 C   0  0  0  0  0  0  0  0  0  0  0  0
  128.3003  141.6371  136.4098 C   0  0  0  0  0  0  0  0  0  0  0  0
  129.2327  142.7614  136.8322 C   0  0  2  0  0  0  0  0  0  0  0  0
  130.0690  142.3295  138.0281 C   0  0  0  0  0  0  0  0  0  0  0  0
  131.1633  138.0650  131.0928 O   0  0  0  0  0  0  0  0  0  0  0  0
  130.6926  137.3639  130.0146 C   0  0  1  0  0  0  0  0  0  0  0  0
  131.7697  136.5678  129.2781 C   0  0  0  0  0  0  0  0  0  0  0  0
  131.0892  136.1178  127.9850 C   0  0  2  0  0  0  0  0  0  0  0  0
  130.6319  137.2108  127.2620 O   0  0  0  0  0  0  0  0  0  0  0  0
  129.8668  135.2869  128.3530 C   0  0  2  0  0  0  0  0  0  0  0  0
  129.1008  135.0742  127.2090 O   0  0  0  0  0  0  0  0  0  0  0  0
  129.8189  135.2256  126.0246 C   0  0  1  0  0  0  0  0  0  0  0  0
  128.9683  135.8355  124.9313 C   0  0  0  0  0  0  0  0  0  0  0  0
  129.5831  137.1680  124.5601 C   0  0  2  0  0  0  0  0  0  0  0  0
  128.8442  137.8354  123.5969 O   0  0  0  0  0  0  0  0  0  0  0  0
  131.0009  136.8736  124.0907 C   0  0  2  0  0  0  0  0  0  0  0  0
  130.8954  135.9807  123.0382 O   0  0  0  0  0  0  0  0  0  0  0  0
  131.0468  136.5748  121.7934 C   0  0  1  0  0  0  0  0  0  0  0  0
  132.4545  136.9650  121.4749 C   0  0  0  0  0  0  0  0  0  0  0  0
  132.5566  137.2061  119.9842 C   0  0  2  0  0  0  0  0  0  0  0  0
  131.7472  138.2919  119.5768 O   0  0  0  0  0  0  0  0  0  0  0  0
  132.2486  139.3184  118.7911 C   0  0  0  0  0  0  0  0  0  0  0  0
  131.4365  140.5181  118.4489 C   0  0  0  0  0  0  0  0  0  0  0  0
  133.4297  139.2117  118.3650 O   0  0  0  0  0  0  0  0  0  0  0  0
  132.1704  136.0137  119.1731 C   0  0  2  0  0  0  0  0  0  0  0  0
  131.6257  136.3497  117.9369 O   0  0  0  0  0  0  0  0  0  0  0  0
  131.2457  135.1382  119.9816 C   0  0  1  0  0  0  0  0  0  0  0  0
  132.0686  134.1197  120.7282 C   0  0  0  0  0  0  0  0  0  0  0  0
  130.4331  135.8008  120.8529 O   0  0  0  0  0  0  0  0  0  0  0  0
  131.7403  136.3094  125.2766 C   0  0  1  0  0  0  0  0  0  0  0  0
  132.7017  137.4026  125.7668 C   0  0  0  0  0  0  0  0  0  0  0  0
  130.9181  136.0164  126.3368 O   0  0  0  0  0  0  0  0  0  0  0  0
  128.9985  136.0878  129.3004 C   0  0  1  0  0  0  0  0  0  0  0  0
  127.7936  135.2994  129.7354 C   0  0  0  0  0  0  0  0  0  0  0  0
  129.7403  136.4460  130.4243 O   0  0  0  0  0  0  0  0  0  0  0  0
  128.6848  144.6778  138.3780 C   0  0  0  0  0  0  0  0  0  0  0  0
  127.7439  145.1954  139.1485 C   0  0  0  0  0  0  0  0  0  0  0  0
  128.3710  145.8670  140.2740 C   0  0  0  0  0  0  0  0  0  0  0  0
  127.7876  146.4820  141.2299 O   0  0  0  0  0  0  0  0  0  0  0  0
  129.7303  145.7223  140.1286 O   0  0  0  0  0  0  0  0  0  0  0  0
  129.9935  144.9753  138.9644 C   0  0  0  0  0  0  0  0  0  0  0  0
  1  2  1  0
  2  3  1  0
  3  4  1  0
  4  5  1  1
  4  6  1  0
  6  7  1  6
  7  8  1  0
  9  8  1  1
  9 10  1  0
 10 11  1  0
 11 12  1  0
 12 13  1  0
 13 14  1  0
 14 15  1  1
 14 16  1  0
 16 17  1  1
 17 18  1  0
 18 19  1  0
 19 20  1  1
 11 21  1  1
 22 21  1  1
 22 23  1  0
 23 24  1  0
 24 25  1  1
 24 26  1  0
 26 27  1  6
 28 27  1  1
 28 29  1  0
 29 30  1  0
 30 31  1  6
 30 32  1  0
 32 33  1  6
 34 33  1  1
 34 35  1  0
 35 36  1  0
 36 37  1  6
 37 38  1  0
 38 39  1  0
 38 40  2  0
 36 41  1  0
 41 42  1  6
 41 43  1  0
 43 44  1  1
 43 45  1  0
 32 46  1  0
 46 47  1  1
 46 48  1  0
 26 49  1  0
 49 50  1  1
 49 51  1  0
  1 52  1  1
 52 53  2  0
 53 54  1  0
 54 55  2  0
 54 56  1  0
 56 57  1  0
 19  1  1  0
 51 22  1  0
 57 52  1  0
 19  4  1  0
 48 28  1  0
 16  6  1  0
 45 34  1  0
 14  9  1  0
M  END
$$$$
