
     RDKit          3D

 57 64  0  0  0  0  0  0  0  0999 V2000
  157.2629  158.1691  121.6485 C   0  0  1  0  0  0  0  0  0  0  0  0
  156.5775  157.2494  122.6577 C   0  0  0  0  0  0  0  0  0  0  0  0
  157.6637  156.2230  123.0168 C   0  0  0  0  0  0  0  0  0  0  0  0
  158.3102  156.0415  121.6543 C   0  0  2  0  0  0  0  0  0  0  0  0
  157.4272  155.4083  120.7757 O   0  0  0  0  0  0  0  0  0  0  0  0
  159.5902  155.2988  121.6681 C   0  0  2  0  0  0  0  0  0  0  0  0
  159.4180  153.8752  122.1856 C   0  0  0  0  0  0  0  0  0  0  0  0
  160.6528  153.0970  121.7850 C   0  0  0  0  0  0  0  0  0  0  0  0
  161.9090  153.7189  122.3487 C   0  0  2  0  0  0  0  0  0  0  0  0
  161.9120  153.5016  123.8267 C   0  0  0  0  0  0  0  0  0  0  0  0
  163.1201  154.0920  124.5155 C   0  0  2  0  0  0  0  0  0  0  0  0
  163.2412  155.5256  124.1221 C   0  0  0  0  0  0  0  0  0  0  0  0
  163.1962  155.7905  122.6582 C   0  0  0  0  0  0  0  0  0  0  0  0
  161.9874  155.1860  121.9766 C   0  0  1  0  0  0  0  0  0  0  0  0
  162.2219  155.2689  120.4967 C   0  0  0  0  0  0  0  0  0  0  0  0
  160.7117  155.9120  122.4075 C   0  0  1  0  0  0  0  0  0  0  0  0
  160.8943  157.3814  122.1555 C   0  0  0  0  0  0  0  0  0  0  0  0
  159.6339  158.1420  122.0420 C   0  0  0  0  0  0  0  0  0  0  0  0
  158.5235  157.4680  121.2515 C   0  0  2  0  0  0  0  0  0  0  0  0
  158.8062  157.5664  119.7593 C   0  0  0  0  0  0  0  0  0  0  0  0
  164.2439  153.3221  124.2201 O   0  0  0  0  0  0  0  0  0  0  0  0
  164.6652  152.5744  125.2874 C   0  0  1  0  0  0  0  0  0  0  0  0
  165.7496  151.5555  124.9376 C   0  0  0  0  0  0  0  0  0  0  0  0
  165.8492  150.6683  126.1787 C   0  0  2  0  0  0  0  0  0  0  0  0
  164.6244  150.0812  126.4649 O   0  0  0  0  0  0  0  0  0  0  0  0
  166.2069  151.5497  127.3683 C   0  0  2  0  0  0  0  0  0  0  0  0
  166.0636  150.8111  128.5406 O   0  0  0  0  0  0  0  0  0  0  0  0
  167.2778  150.4545  129.1236 C   0  0  1  0  0  0  0  0  0  0  0  0
  167.0785  149.5318  130.3067 C   0  0  0  0  0  0  0  0  0  0  0  0
  167.7411  148.2115  129.9765 C   0  0  2  0  0  0  0  0  0  0  0  0
  167.5691  147.2737  130.9815 O   0  0  0  0  0  0  0  0  0  0  0  0
  169.2110  148.5170  129.7252 C   0  0  2  0  0  0  0  0  0  0  0  0
  169.6933  149.1271  130.8703 O   0  0  0  0  0  0  0  0  0  0  0  0
  170.7700  148.4611  131.4386 C   0  0  1  0  0  0  0  0  0  0  0  0
  172.0330  149.2607  131.4633 C   0  0  0  0  0  0  0  0  0  0  0  0
  172.9863  148.6156  132.4462 C   0  0  2  0  0  0  0  0  0  0  0  0
  173.3546  147.3137  132.0347 O   0  0  0  0  0  0  0  0  0  0  0  0
  174.6808  146.9617  131.8353 C   0  0  0  0  0  0  0  0  0  0  0  0
  175.2480  146.7651  130.4731 C   0  0  0  0  0  0  0  0  0  0  0  0
  175.4094  146.8090  132.8519 O   0  0  0  0  0  0  0  0  0  0  0  0
  172.4248  148.5210  133.8262 C   0  0  2  0  0  0  0  0  0  0  0  0
  172.9112  147.4279  134.5379 O   0  0  0  0  0  0  0  0  0  0  0  0
  170.9180  148.5260  133.7537 C   0  0  1  0  0  0  0  0  0  0  0  0
  170.4301  149.9478  133.8635 C   0  0  0  0  0  0  0  0  0  0  0  0
  170.3885  147.9427  132.6411 O   0  0  0  0  0  0  0  0  0  0  0  0
  169.2658  149.4068  128.5099 C   0  0  1  0  0  0  0  0  0  0  0  0
  169.7974  148.5502  127.3509 C   0  0  0  0  0  0  0  0  0  0  0  0
  168.0311  149.8620  128.1173 O   0  0  0  0  0  0  0  0  0  0  0  0
  165.2052  152.6819  127.4566 C   0  0  1  0  0  0  0  0  0  0  0  0
  165.5337  153.6144  128.5902 C   0  0  0  0  0  0  0  0  0  0  0  0
  165.2033  153.3984  126.2615 O   0  0  0  0  0  0  0  0  0  0  0  0
  156.3403  158.5044  120.5291 C   0  0  0  0  0  0  0  0  0  0  0  0
  155.2445  159.2158  120.7290 C   0  0  0  0  0  0  0  0  0  0  0  0
  154.5486  159.3775  119.4639 C   0  0  0  0  0  0  0  0  0  0  0  0
  153.4551  160.0054  119.2579 O   0  0  0  0  0  0  0  0  0  0  0  0
  155.2872  158.7235  118.5064 O   0  0  0  0  0  0  0  0  0  0  0  0
  156.4308  158.1638  119.1076 C   0  0  0  0  0  0  0  0  0  0  0  0
  1  2  1  0
  2  3  1  0
  3  4  1  0
  4  5  1  6
  4  6  1  0
  6  7  1  1
  7  8  1  0
  9  8  1  1
  9 10  1  0
 10 11  1  0
 11 12  1  0
 12 13  1  0
 13 14  1  0
 14 15  1  6
 14 16  1  0
 16 17  1  6
 17 18  1  0
 18 19  1  0
 19 20  1  6
 11 21  1  6
 22 21  1  6
 22 23  1  0
 23 24  1  0
 24 25  1  1
 24 26  1  0
 26 27  1  1
 28 27  1  6
 28 29  1  0
 29 30  1  0
 30 31  1  1
 30 32  1  0
 32 33  1  1
 34 33  1  1
 34 35  1  0
 35 36  1  0
 36 37  1  6
 37 38  1  0
 38 39  1  0
 38 40  2  0
 36 41  1  0
 41 42  1  6
 41 43  1  0
 43 44  1  6
 43 45  1  0
 32 46  1  0
 46 47  1  6
 46 48  1  0
 26 49  1  0
 49 50  1  1
 49 51  1  0
  1 52  1  6
 52 53  2  0
 53 54  1  0
 54 55  2  0
 54 56  1  0
 56 57  1  0
 19  1  1  0
 51 22  1  0
 57 52  1  0
 19  4  1  0
 48 28  1  0
 16  6  1  0
 45 34  1  0
 14  9  1  0
M  END
$$$$
