
     RDKit          3D

 57 64  0  0  0  0  0  0  0  0999 V2000
  191.9771  194.8555  156.3362 C   0  0  1  0  0  0  0  0  0  0  0  0
  191.6007  196.2125  156.9289 C   0  0  0  0  0  0  0  0  0  0  0  0
  192.8771  197.0527  156.7637 C   0  0  0  0  0  0  0  0  0  0  0  0
  193.9251  195.9951  157.0646 C   0  0  2  0  0  0  0  0  0  0  0  0
  193.8610  195.6127  158.4071 O   0  0  0  0  0  0  0  0  0  0  0  0
  195.3148  196.3885  156.7423 C   0  0  2  0  0  0  0  0  0  0  0  0
  195.7685  197.5966  157.5541 C   0  0  0  0  0  0  0  0  0  0  0  0
  197.2778  197.6614  157.4617 C   0  0  0  0  0  0  0  0  0  0  0  0
  197.7424  197.7792  156.0288 C   0  0  2  0  0  0  0  0  0  0  0  0
  197.3757  199.1396  155.5321 C   0  0  0  0  0  0  0  0  0  0  0  0
  197.7785  199.3804  154.0960 C   0  0  2  0  0  0  0  0  0  0  0  0
  197.2391  198.2720  153.2562 C   0  0  0  0  0  0  0  0  0  0  0  0
  197.5430  196.8986  153.7422 C   0  0  0  0  0  0  0  0  0  0  0  0
  197.1447  196.6714  155.1848 C   0  0  1  0  0  0  0  0  0  0  0  0
  197.7690  195.3785  155.6215 C   0  0  0  0  0  0  0  0  0  0  0  0
  195.6213  196.6609  155.3238 C   0  0  1  0  0  0  0  0  0  0  0  0
  195.0644  195.6511  154.3614 C   0  0  0  0  0  0  0  0  0  0  0  0
  193.7131  195.1639  154.7027 C   0  0  0  0  0  0  0  0  0  0  0  0
  193.4644  194.8813  156.1759 C   0  0  2  0  0  0  0  0  0  0  0  0
  194.1219  193.5689  156.5776 C   0  0  0  0  0  0  0  0  0  0  0  0
  199.1623  199.5310  154.0222 O   0  0  0  0  0  0  0  0  0  0  0  0
  199.5453  200.4021  153.0372 C   0  0  1  0  0  0  0  0  0  0  0  0
  201.0490  200.6744  153.0046 C   0  0  0  0  0  0  0  0  0  0  0  0
  201.1982  201.8581  152.0485 C   0  0  2  0  0  0  0  0  0  0  0  0
  200.4588  202.9461  152.4913 O   0  0  0  0  0  0  0  0  0  0  0  0
  200.6259  201.4543  150.6958 C   0  0  2  0  0  0  0  0  0  0  0  0
  200.5280  202.5849  149.8880 O   0  0  0  0  0  0  0  0  0  0  0  0
  201.7434  202.9737  149.3283 C   0  0  1  0  0  0  0  0  0  0  0  0
  201.5416  203.8634  148.1206 C   0  0  0  0  0  0  0  0  0  0  0  0
  202.1470  205.2139  148.4384 C   0  0  2  0  0  0  0  0  0  0  0  0
  201.9673  206.1234  147.4091 O   0  0  0  0  0  0  0  0  0  0  0  0
  203.6200  204.9680  148.7336 C   0  0  2  0  0  0  0  0  0  0  0  0
  204.1538  204.3523  147.6146 O   0  0  0  0  0  0  0  0  0  0  0  0
  205.2545  205.0162  147.0919 C   0  0  1  0  0  0  0  0  0  0  0  0
  206.1747  204.1387  146.3053 C   0  0  0  0  0  0  0  0  0  0  0  0
  207.0745  205.0214  145.4674 C   0  0  2  0  0  0  0  0  0  0  0  0
  207.9032  205.8344  146.2750 O   0  0  0  0  0  0  0  0  0  0  0  0
  209.2840  205.8153  146.1511 C   0  0  0  0  0  0  0  0  0  0  0  0
  210.0618  207.0373  145.8080 C   0  0  0  0  0  0  0  0  0  0  0  0
  209.8777  204.7198  146.3390 O   0  0  0  0  0  0  0  0  0  0  0  0
  206.3168  205.9133  144.5404 C   0  0  2  0  0  0  0  0  0  0  0  0
  206.9745  207.1122  144.2800 O   0  0  0  0  0  0  0  0  0  0  0  0
  204.9276  206.1348  145.0849 C   0  0  1  0  0  0  0  0  0  0  0  0
  204.0078  205.0861  144.5137 C   0  0  0  0  0  0  0  0  0  0  0  0
  204.8309  206.1396  146.4447 O   0  0  0  0  0  0  0  0  0  0  0  0
  203.6753  204.1066  149.9690 C   0  0  1  0  0  0  0  0  0  0  0  0
  204.1450  205.0063  151.1220 C   0  0  0  0  0  0  0  0  0  0  0  0
  202.4481  203.6145  150.3401 O   0  0  0  0  0  0  0  0  0  0  0  0
  199.2112  200.9521  150.8938 C   0  0  1  0  0  0  0  0  0  0  0  0
  198.6069  200.4957  149.5942 C   0  0  0  0  0  0  0  0  0  0  0  0
  199.2144  199.8889  151.7945 O   0  0  0  0  0  0  0  0  0  0  0  0
  191.4457  193.7473  157.1765 C   0  0  0  0  0  0  0  0  0  0  0  0
  190.4235  193.0101  156.7783 C   0  0  0  0  0  0  0  0  0  0  0  0
  190.1296  192.0189  157.7993 C   0  0  0  0  0  0  0  0  0  0  0  0
  189.2133  191.1290  157.7715 O   0  0  0  0  0  0  0  0  0  0  0  0
  191.0281  192.2092  158.8221 O   0  0  0  0  0  0  0  0  0  0  0  0
  191.8898  193.2716  158.4885 C   0  0  0  0  0  0  0  0  0  0  0  0
  1  2  1  0
  2  3  1  0
  3  4  1  0
  4  5  1  1
  4  6  1  0
  6  7  1  1
  7  8  1  0
  9  8  1  1
  9 10  1  0
 10 11  1  0
 11 12  1  0
 12 13  1  0
 13 14  1  0
 14 15  1  1
 14 16  1  0
 16 17  1  6
 17 18  1  0
 18 19  1  0
 19 20  1  1
 11 21  1  1
 22 21  1  1
 22 23  1  0
 23 24  1  0
 24 25  1  1
 24 26  1  0
 26 27  1  6
 28 27  1  1
 28 29  1  0
 29 30  1  0
 30 31  1  6
 30 32  1  0
 32 33  1  6
 34 33  1  6
 34 35  1  0
 35 36  1  0
 36 37  1  1
 37 38  1  0
 38 39  1  0
 38 40  2  0
 36 41  1  0
 41 42  1  1
 41 43  1  0
 43 44  1  6
 43 45  1  0
 32 46  1  0
 46 47  1  1
 46 48  1  0
 26 49  1  0
 49 50  1  6
 49 51  1  0
  1 52  1  1
 52 53  2  0
 53 54  1  0
 54 55  2  0
 54 56  1  0
 56 57  1  0
 19  1  1  0
 51 22  1  0
 57 52  1  0
 19  4  1  0
 48 28  1  0
 16  6  1  0
 45 34  1  0
 14  9  1  0
M  END
$$$$
