
     RDKit          3D

 57 64  0  0  0  0  0  0  0  0999 V2000
  188.0855  164.5331  141.8636 C   0  0  1  0  0  0  0  0  0  0  0  0
  188.4630  163.2278  142.5620 C   0  0  0  0  0  0  0  0  0  0  0  0
  187.7885  162.1441  141.7058 C   0  0  0  0  0  0  0  0  0  0  0  0
  186.4878  162.8522  141.3681 C   0  0  2  0  0  0  0  0  0  0  0  0
  185.7056  163.0093  142.5152 O   0  0  0  0  0  0  0  0  0  0  0  0
  185.6768  162.1947  140.3192 C   0  0  2  0  0  0  0  0  0  0  0  0
  185.2364  160.7949  140.7325 C   0  0  0  0  0  0  0  0  0  0  0  0
  184.1112  160.3842  139.8074 C   0  0  0  0  0  0  0  0  0  0  0  0
  184.5475  160.3985  138.3610 C   0  0  2  0  0  0  0  0  0  0  0  0
  185.5032  159.2693  138.1530 C   0  0  0  0  0  0  0  0  0  0  0  0
  186.0262  159.1815  136.7383 C   0  0  2  0  0  0  0  0  0  0  0  0
  186.5787  160.5112  136.3498 C   0  0  0  0  0  0  0  0  0  0  0  0
  185.6746  161.6700  136.5842 C   0  0  0  0  0  0  0  0  0  0  0  0
  185.1485  161.7426  138.0017 C   0  0  1  0  0  0  0  0  0  0  0  0
  184.0411  162.7552  138.0151 C   0  0  0  0  0  0  0  0  0  0  0  0
  186.2759  162.0970  138.9731 C   0  0  1  0  0  0  0  0  0  0  0  0
  186.9370  163.3572  138.4928 C   0  0  0  0  0  0  0  0  0  0  0  0
  187.6798  164.0920  139.5360 C   0  0  0  0  0  0  0  0  0  0  0  0
  187.0027  164.1764  140.8947 C   0  0  2  0  0  0  0  0  0  0  0  0
  185.8820  165.2055  140.8605 C   0  0  0  0  0  0  0  0  0  0  0  0
  185.0154  158.7161  135.8989 O   0  0  0  0  0  0  0  0  0  0  0  0
  185.4820  157.8595  134.9375 C   0  0  1  0  0  0  0  0  0  0  0  0
  184.7321  156.5289  134.8798 C   0  0  0  0  0  0  0  0  0  0  0  0
  185.5870  155.6527  133.9638 C   0  0  2  0  0  0  0  0  0  0  0  0
  186.8762  155.5283  134.4629 O   0  0  0  0  0  0  0  0  0  0  0  0
  185.7001  156.3438  132.6112 C   0  0  2  0  0  0  0  0  0  0  0  0
  186.6657  155.6922  131.8473 O   0  0  0  0  0  0  0  0  0  0  0  0
  186.1315  154.7878  130.9319 C   0  0  1  0  0  0  0  0  0  0  0  0
  187.1716  154.3236  129.9351 C   0  0  0  0  0  0  0  0  0  0  0  0
  187.3521  152.8322  130.1203 C   0  0  2  0  0  0  0  0  0  0  0  0
  188.3283  152.3152  129.2843 O   0  0  0  0  0  0  0  0  0  0  0  0
  185.9910  152.1981  129.8703 C   0  0  2  0  0  0  0  0  0  0  0  0
  185.6046  152.5723  128.5949 O   0  0  0  0  0  0  0  0  0  0  0  0
  185.8137  151.5844  127.6430 C   0  0  1  0  0  0  0  0  0  0  0  0
  184.6290  151.3244  126.7688 C   0  0  0  0  0  0  0  0  0  0  0  0
  185.0956  150.5591  125.5492 C   0  0  2  0  0  0  0  0  0  0  0  0
  185.6114  149.2894  125.8983 O   0  0  0  0  0  0  0  0  0  0  0  0
  184.7777  148.2260  126.2091 C   0  0  0  0  0  0  0  0  0  0  0  0
  183.3458  148.4244  126.5642 C   0  0  0  0  0  0  0  0  0  0  0  0
  185.2681  147.0655  126.1839 O   0  0  0  0  0  0  0  0  0  0  0  0
  186.1439  151.2842  124.7718 C   0  0  2  0  0  0  0  0  0  0  0  0
  187.0222  150.4286  124.1129 O   0  0  0  0  0  0  0  0  0  0  0  0
  186.8650  152.2463  125.6828 C   0  0  1  0  0  0  0  0  0  0  0  0
  186.1732  153.5842  125.6236 C   0  0  0  0  0  0  0  0  0  0  0  0
  186.9772  151.8437  126.9803 O   0  0  0  0  0  0  0  0  0  0  0  0
  185.0697  152.7145  130.9456 C   0  0  1  0  0  0  0  0  0  0  0  0
  184.8330  151.5566  131.9270 C   0  0  0  0  0  0  0  0  0  0  0  0
  185.6172  153.7366  131.6814 O   0  0  0  0  0  0  0  0  0  0  0  0
  186.2095  157.7538  132.8238 C   0  0  1  0  0  0  0  0  0  0  0  0
  186.3004  158.5035  131.5229 C   0  0  0  0  0  0  0  0  0  0  0  0
  185.3522  158.4356  133.6851 O   0  0  0  0  0  0  0  0  0  0  0  0
  187.7298  165.5806  142.8600 C   0  0  0  0  0  0  0  0  0  0  0  0
  188.5089  166.6282  143.0661 C   0  0  0  0  0  0  0  0  0  0  0  0
  187.9102  167.4682  144.0894 C   0  0  0  0  0  0  0  0  0  0  0  0
  188.3690  168.5666  144.5536 O   0  0  0  0  0  0  0  0  0  0  0  0
  186.7393  166.8629  144.4795 O   0  0  0  0  0  0  0  0  0  0  0  0
  186.5615  165.6795  143.7375 C   0  0  0  0  0  0  0  0  0  0  0  0
  1  2  1  0
  2  3  1  0
  3  4  1  0
  4  5  1  1
  4  6  1  0
  6  7  1  1
  7  8  1  0
  9  8  1  1
  9 10  1  0
 10 11  1  0
 11 12  1  0
 12 13  1  0
 13 14  1  0
 14 15  1  6
 14 16  1  0
 16 17  1  6
 17 18  1  0
 18 19  1  0
 19 20  1  6
 11 21  1  6
 22 21  1  1
 22 23  1  0
 23 24  1  0
 24 25  1  1
 24 26  1  0
 26 27  1  6
 28 27  1  1
 28 29  1  0
 29 30  1  0
 30 31  1  6
 30 32  1  0
 32 33  1  6
 34 33  1  1
 34 35  1  0
 35 36  1  0
 36 37  1  1
 37 38  1  0
 38 39  1  0
 38 40  2  0
 36 41  1  0
 41 42  1  1
 41 43  1  0
 43 44  1  1
 43 45  1  0
 32 46  1  0
 46 47  1  1
 46 48  1  0
 26 49  1  0
 49 50  1  6
 49 51  1  0
  1 52  1  1
 52 53  2  0
 53 54  1  0
 54 55  2  0
 54 56  1  0
 56 57  1  0
 19  1  1  0
 51 22  1  0
 57 52  1  0
 19  4  1  0
 48 28  1  0
 16  6  1  0
 45 34  1  0
 14  9  1  0
M  END
$$$$
