
     RDKit          3D

 57 64  0  0  0  0  0  0  0  0999 V2000
  163.3674  146.2477  129.4934 C   0  0  1  0  0  0  0  0  0  0  0  0
  164.8426  146.0424  129.1527 C   0  0  0  0  0  0  0  0  0  0  0  0
  165.1418  147.1508  128.1309 C   0  0  0  0  0  0  0  0  0  0  0  0
  163.8401  147.1406  127.3479 C   0  0  2  0  0  0  0  0  0  0  0  0
  163.7123  145.9490  126.6294 O   0  0  0  0  0  0  0  0  0  0  0  0
  163.6630  148.2817  126.4225 C   0  0  2  0  0  0  0  0  0  0  0  0
  164.7401  148.3141  125.3441 C   0  0  0  0  0  0  0  0  0  0  0  0
  164.2521  149.2346  124.2462 C   0  0  0  0  0  0  0  0  0  0  0  0
  163.9803  150.6263  124.7677 C   0  0  2  0  0  0  0  0  0  0  0  0
  165.2908  151.2619  125.0999 C   0  0  0  0  0  0  0  0  0  0  0  0
  165.1540  152.6635  125.6470 C   0  0  2  0  0  0  0  0  0  0  0  0
  164.1951  152.6390  126.7891 C   0  0  0  0  0  0  0  0  0  0  0  0
  162.8930  151.9729  126.5136 C   0  0  0  0  0  0  0  0  0  0  0  0
  163.0418  150.5733  125.9565 C   0  0  1  0  0  0  0  0  0  0  0  0
  161.6934  150.1477  125.4539 C   0  0  0  0  0  0  0  0  0  0  0  0
  163.5920  149.6277  127.0257 C   0  0  1  0  0  0  0  0  0  0  0  0
  162.7118  149.7206  128.2391 C   0  0  0  0  0  0  0  0  0  0  0  0
  162.7916  148.5545  129.1412 C   0  0  0  0  0  0  0  0  0  0  0  0
  162.8409  147.1950  128.4621 C   0  0  2  0  0  0  0  0  0  0  0  0
  161.4574  146.8078  127.9598 C   0  0  0  0  0  0  0  0  0  0  0  0
  164.7923  153.5296  124.6165 O   0  0  0  0  0  0  0  0  0  0  0  0
  165.8400  154.2971  124.1816 C   0  0  1  0  0  0  0  0  0  0  0  0
  166.1310  154.1548  122.6879 C   0  0  0  0  0  0  0  0  0  0  0  0
  167.4772  154.8539  122.4968 C   0  0  2  0  0  0  0  0  0  0  0  0
  168.4519  154.2747  123.2975 O   0  0  0  0  0  0  0  0  0  0  0  0
  167.3326  156.3006  122.9510 C   0  0  2  0  0  0  0  0  0  0  0  0
  168.5955  156.8849  123.0162 O   0  0  0  0  0  0  0  0  0  0  0  0
  169.0029  157.4609  121.8147 C   0  0  1  0  0  0  0  0  0  0  0  0
  170.0577  158.5238  122.0356 C   0  0  0  0  0  0  0  0  0  0  0  0
  171.3237  158.0655  121.3438 C   0  0  2  0  0  0  0  0  0  0  0  0
  172.3727  158.9506  121.5319 O   0  0  0  0  0  0  0  0  0  0  0  0
  170.9747  157.8970  119.8718 C   0  0  2  0  0  0  0  0  0  0  0  0
  170.4948  159.1190  119.4330 O   0  0  0  0  0  0  0  0  0  0  0  0
  171.4796  159.9400  118.9021 C   0  0  1  0  0  0  0  0  0  0  0  0
  172.0202  159.4681  117.5905 C   0  0  0  0  0  0  0  0  0  0  0  0
  172.7533  160.6189  116.9353 C   0  0  2  0  0  0  0  0  0  0  0  0
  173.8733  161.0233  117.6984 O   0  0  0  0  0  0  0  0  0  0  0  0
  174.3818  162.3107  117.6179 C   0  0  0  0  0  0  0  0  0  0  0  0
  174.8343  162.9004  116.3282 C   0  0  0  0  0  0  0  0  0  0  0  0
  174.4538  162.9836  118.6808 O   0  0  0  0  0  0  0  0  0  0  0  0
  171.8864  161.8151  116.7199 C   0  0  2  0  0  0  0  0  0  0  0  0
  172.5925  163.0140  116.7641 O   0  0  0  0  0  0  0  0  0  0  0  0
  170.7472  161.7906  117.7084 C   0  0  1  0  0  0  0  0  0  0  0  0
  169.5770  161.0736  117.0851 C   0  0  0  0  0  0  0  0  0  0  0  0
  171.0388  161.2307  118.9166 O   0  0  0  0  0  0  0  0  0  0  0  0
  169.9506  156.7940  119.7940 C   0  0  1  0  0  0  0  0  0  0  0  0
  170.6622  155.5618  119.2153 C   0  0  0  0  0  0  0  0  0  0  0  0
  169.4673  156.4175  121.0230 O   0  0  0  0  0  0  0  0  0  0  0  0
  166.7854  156.3174  124.3627 C   0  0  1  0  0  0  0  0  0  0  0  0
  166.5786  157.7248  124.8515 C   0  0  0  0  0  0  0  0  0  0  0  0
  165.5698  155.6373  124.4009 O   0  0  0  0  0  0  0  0  0  0  0  0
  162.6592  144.9409  129.5794 C   0  0  0  0  0  0  0  0  0  0  0  0
  162.3398  144.4059  130.7450 C   0  0  0  0  0  0  0  0  0  0  0  0
  161.6663  143.1392  130.5148 C   0  0  0  0  0  0  0  0  0  0  0  0
  161.2083  142.3358  131.3965 O   0  0  0  0  0  0  0  0  0  0  0  0
  161.6060  142.9513  129.1543 O   0  0  0  0  0  0  0  0  0  0  0  0
  162.2014  144.0522  128.5091 C   0  0  0  0  0  0  0  0  0  0  0  0
  1  2  1  0
  2  3  1  0
  3  4  1  0
  4  5  1  6
  4  6  1  0
  6  7  1  6
  7  8  1  0
  9  8  1  1
  9 10  1  0
 10 11  1  0
 11 12  1  0
 12 13  1  0
 13 14  1  0
 14 15  1  6
 14 16  1  0
 16 17  1  1
 17 18  1  0
 18 19  1  0
 19 20  1  6
 11 21  1  6
 22 21  1  6
 22 23  1  0
 23 24  1  0
 24 25  1  1
 24 26  1  0
 26 27  1  1
 28 27  1  1
 28 29  1  0
 29 30  1  0
 30 31  1  6
 30 32  1  0
 32 33  1  1
 34 33  1  6
 34 35  1  0
 35 36  1  0
 36 37  1  1
 37 38  1  0
 38 39  1  0
 38 40  2  0
 36 41  1  0
 41 42  1  1
 41 43  1  0
 43 44  1  6
 43 45  1  0
 32 46  1  0
 46 47  1  1
 46 48  1  0
 26 49  1  0
 49 50  1  6
 49 51  1  0
  1 52  1  6
 52 53  2  0
 53 54  1  0
 54 55  2  0
 54 56  1  0
 56 57  1  0
 19  1  1  0
 51 22  1  0
 57 52  1  0
 19  4  1  0
 48 28  1  0
 16  6  1  0
 45 34  1  0
 14  9  1  0
M  END
$$$$
