
     RDKit          3D

 57 64  0  0  0  0  0  0  0  0999 V2000
  151.2105  161.9045  116.4602 C   0  0  1  0  0  0  0  0  0  0  0  0
  151.1264  160.4814  117.0096 C   0  0  0  0  0  0  0  0  0  0  0  0
  151.8932  160.5547  118.3397 C   0  0  0  0  0  0  0  0  0  0  0  0
  153.0179  161.4941  117.9396 C   0  0  2  0  0  0  0  0  0  0  0  0
  153.8646  160.8760  117.0158 O   0  0  0  0  0  0  0  0  0  0  0  0
  153.8283  162.0079  119.0662 C   0  0  2  0  0  0  0  0  0  0  0  0
  154.5364  160.8862  119.8176 C   0  0  0  0  0  0  0  0  0  0  0  0
  155.6247  161.5213  120.6560 C   0  0  0  0  0  0  0  0  0  0  0  0
  155.0606  162.5354  121.6235 C   0  0  2  0  0  0  0  0  0  0  0  0
  154.2955  161.7992  122.6744 C   0  0  0  0  0  0  0  0  0  0  0  0
  153.6667  162.7088  123.7038 C   0  0  2  0  0  0  0  0  0  0  0  0
  152.8628  163.7471  122.9964 C   0  0  0  0  0  0  0  0  0  0  0  0
  153.5747  164.4730  121.9096 C   0  0  0  0  0  0  0  0  0  0  0  0
  154.2094  163.5521  120.8895 C   0  0  1  0  0  0  0  0  0  0  0  0
  155.1252  164.3874  120.0435 C   0  0  0  0  0  0  0  0  0  0  0  0
  153.1328  162.8461  120.0634 C   0  0  1  0  0  0  0  0  0  0  0  0
  152.2258  163.8891  119.4759 C   0  0  0  0  0  0  0  0  0  0  0  0
  151.4685  163.4411  118.2903 C   0  0  0  0  0  0  0  0  0  0  0  0
  152.2440  162.5992  117.2895 C   0  0  2  0  0  0  0  0  0  0  0  0
  153.1656  163.4830  116.4614 C   0  0  0  0  0  0  0  0  0  0  0  0
  154.6599  163.2241  124.5349 O   0  0  0  0  0  0  0  0  0  0  0  0
  154.1666  163.6651  125.7341 C   0  0  1  0  0  0  0  0  0  0  0  0
  155.2255  163.7874  126.8296 C   0  0  0  0  0  0  0  0  0  0  0  0
  154.4203  164.0065  128.1107 C   0  0  2  0  0  0  0  0  0  0  0  0
  153.5372  162.9570  128.3238 O   0  0  0  0  0  0  0  0  0  0  0  0
  153.5798  165.2648  127.9371 C   0  0  2  0  0  0  0  0  0  0  0  0
  152.6641  165.3476  128.9836 O   0  0  0  0  0  0  0  0  0  0  0  0
  153.1324  166.0779  130.0739 C   0  0  1  0  0  0  0  0  0  0  0  0
  152.1290  166.0932  131.2069 C   0  0  0  0  0  0  0  0  0  0  0  0
  152.7639  165.3986  132.3925 C   0  0  2  0  0  0  0  0  0  0  0  0
  151.9010  165.3130  133.4729 O   0  0  0  0  0  0  0  0  0  0  0  0
  154.0244  166.1832  132.7284 C   0  0  2  0  0  0  0  0  0  0  0  0
  153.6292  167.4868  132.9749 O   0  0  0  0  0  0  0  0  0  0  0  0
  153.6618  167.8282  134.3196 C   0  0  1  0  0  0  0  0  0  0  0  0
  154.0627  169.2455  134.5757 C   0  0  0  0  0  0  0  0  0  0  0  0
  153.6685  169.6037  135.9925 C   0  0  2  0  0  0  0  0  0  0  0  0
  154.3682  168.8210  136.9401 O   0  0  0  0  0  0  0  0  0  0  0  0
  155.1853  169.3989  137.8997 C   0  0  0  0  0  0  0  0  0  0  0  0
  156.2793  168.6394  138.5647 C   0  0  0  0  0  0  0  0  0  0  0  0
  154.9776  170.6044  138.2025 O   0  0  0  0  0  0  0  0  0  0  0  0
  152.2069  169.4409  136.2497 C   0  0  2  0  0  0  0  0  0  0  0  0
  151.9203  169.1124  137.5717 O   0  0  0  0  0  0  0  0  0  0  0  0
  151.6380  168.4362  135.2790 C   0  0  1  0  0  0  0  0  0  0  0  0
  151.1426  169.1664  134.0570 C   0  0  0  0  0  0  0  0  0  0  0  0
  152.4923  167.4417  134.9055 O   0  0  0  0  0  0  0  0  0  0  0  0
  154.9425  166.0554  131.5400 C   0  0  1  0  0  0  0  0  0  0  0  0
  156.0728  165.0986  131.9479 C   0  0  0  0  0  0  0  0  0  0  0  0
  154.3350  165.4894  130.4462 O   0  0  0  0  0  0  0  0  0  0  0  0
  152.7624  165.1355  126.6690 C   0  0  1  0  0  0  0  0  0  0  0  0
  151.9419  166.3713  126.4199 C   0  0  0  0  0  0  0  0  0  0  0  0
  153.6119  164.9249  125.5848 O   0  0  0  0  0  0  0  0  0  0  0  0
  151.4736  161.8894  114.9949 C   0  0  0  0  0  0  0  0  0  0  0  0
  151.0591  160.8938  114.2307 C   0  0  0  0  0  0  0  0  0  0  0  0
  151.4623  161.1516  112.8589 C   0  0  0  0  0  0  0  0  0  0  0  0
  151.2404  160.4173  111.8371 O   0  0  0  0  0  0  0  0  0  0  0  0
  152.1382  162.3486  112.8511 O   0  0  0  0  0  0  0  0  0  0  0  0
  152.1703  162.8695  114.1589 C   0  0  0  0  0  0  0  0  0  0  0  0
  1  2  1  0
  2  3  1  0
  3  4  1  0
  4  5  1  6
  4  6  1  0
  6  7  1  1
  7  8  1  0
  9  8  1  6
  9 10  1  0
 10 11  1  0
 11 12  1  0
 12 13  1  0
 13 14  1  0
 14 15  1  6
 14 16  1  0
 16 17  1  6
 17 18  1  0
 18 19  1  0
 19 20  1  6
 11 21  1  6
 22 21  1  6
 22 23  1  0
 23 24  1  0
 24 25  1  6
 24 26  1  0
 26 27  1  1
 28 27  1  6
 28 29  1  0
 29 30  1  0
 30 31  1  1
 30 32  1  0
 32 33  1  6
 34 33  1  6
 34 35  1  0
 35 36  1  0
 36 37  1  1
 37 38  1  0
 38 39  1  0
 38 40  2  0
 36 41  1  0
 41 42  1  1
 41 43  1  0
 43 44  1  6
 43 45  1  0
 32 46  1  0
 46 47  1  1
 46 48  1  0
 26 49  1  0
 49 50  1  6
 49 51  1  0
  1 52  1  6
 52 53  2  0
 53 54  1  0
 54 55  2  0
 54 56  1  0
 56 57  1  0
 19  1  1  0
 51 22  1  0
 57 52  1  0
 19  4  1  0
 48 28  1  0
 16  6  1  0
 45 34  1  0
 14  9  1  0
M  END
$$$$
