
     RDKit          3D

 57 64  0  0  0  0  0  0  0  0999 V2000
  190.9988  162.4556  134.4327 C   0  0  1  0  0  0  0  0  0  0  0  0
  192.1948  163.2260  133.8759 C   0  0  0  0  0  0  0  0  0  0  0  0
  192.1462  162.9399  132.3665 C   0  0  0  0  0  0  0  0  0  0  0  0
  191.7156  161.4835  132.3920 C   0  0  2  0  0  0  0  0  0  0  0  0
  192.7302  160.6839  132.9247 O   0  0  0  0  0  0  0  0  0  0  0  0
  191.3084  160.9332  131.0799 C   0  0  2  0  0  0  0  0  0  0  0  0
  192.4506  160.9610  130.0704 C   0  0  0  0  0  0  0  0  0  0  0  0
  192.0729  160.0331  128.9360 C   0  0  0  0  0  0  0  0  0  0  0  0
  190.7765  160.4523  128.2831 C   0  0  2  0  0  0  0  0  0  0  0  0
  191.0230  161.7206  127.5332 C   0  0  0  0  0  0  0  0  0  0  0  0
  189.7913  162.2544  126.8399 C   0  0  2  0  0  0  0  0  0  0  0  0
  188.6873  162.3550  127.8377 C   0  0  0  0  0  0  0  0  0  0  0  0
  188.4392  161.1259  128.6395 C   0  0  0  0  0  0  0  0  0  0  0  0
  189.6816  160.5940  129.3213 C   0  0  1  0  0  0  0  0  0  0  0  0
  189.3569  159.2207  129.8317 C   0  0  0  0  0  0  0  0  0  0  0  0
  190.1267  161.5417  130.4366 C   0  0  1  0  0  0  0  0  0  0  0  0
  188.9632  161.7681  131.3590 C   0  0  0  0  0  0  0  0  0  0  0  0
  189.3372  162.2291  132.7108 C   0  0  0  0  0  0  0  0  0  0  0  0
  190.5495  161.5509  133.3291 C   0  0  2  0  0  0  0  0  0  0  0  0
  190.1786  160.1600  133.8232 C   0  0  0  0  0  0  0  0  0  0  0  0
  189.4948  161.4518  125.7396 O   0  0  0  0  0  0  0  0  0  0  0  0
  189.6966  162.0963  124.5481 C   0  0  1  0  0  0  0  0  0  0  0  0
  189.4622  161.2144  123.3219 C   0  0  0  0  0  0  0  0  0  0  0  0
  190.0126  162.0351  122.1552 C   0  0  2  0  0  0  0  0  0  0  0  0
  191.3515  162.3413  122.3560 O   0  0  0  0  0  0  0  0  0  0  0  0
  189.2584  163.3574  122.1038 C   0  0  2  0  0  0  0  0  0  0  0  0
  189.9018  164.2133  121.2128 O   0  0  0  0  0  0  0  0  0  0  0  0
  189.1787  164.4432  120.0442 C   0  0  1  0  0  0  0  0  0  0  0  0
  189.6443  165.6985  119.3384 C   0  0  0  0  0  0  0  0  0  0  0  0
  190.1964  165.2895  117.9897 C   0  0  2  0  0  0  0  0  0  0  0  0
  190.7004  166.3681  117.2813 O   0  0  0  0  0  0  0  0  0  0  0  0
  189.0594  164.5999  117.2488 C   0  0  2  0  0  0  0  0  0  0  0  0
  188.0154  165.5067  117.1871 O   0  0  0  0  0  0  0  0  0  0  0  0
  187.5697  165.7477  115.8952 C   0  0  1  0  0  0  0  0  0  0  0  0
  186.1141  166.0774  115.8076 C   0  0  0  0  0  0  0  0  0  0  0  0
  185.8486  166.7079  114.4575 C   0  0  2  0  0  0  0  0  0  0  0  0
  186.1101  165.8042  113.4015 O   0  0  0  0  0  0  0  0  0  0  0  0
  185.1418  165.4825  112.4628 C   0  0  0  0  0  0  0  0  0  0  0  0
  183.7366  165.9586  112.5846 C   0  0  0  0  0  0  0  0  0  0  0  0
  185.4837  164.7645  111.4854 O   0  0  0  0  0  0  0  0  0  0  0  0
  186.6576  167.9400  114.2204 C   0  0  2  0  0  0  0  0  0  0  0  0
  186.9517  168.1475  112.8757 O   0  0  0  0  0  0  0  0  0  0  0  0
  187.9014  167.8923  115.0726 C   0  0  1  0  0  0  0  0  0  0  0  0
  187.6159  168.5692  116.3888 C   0  0  0  0  0  0  0  0  0  0  0  0
  188.4042  166.6452  115.2965 O   0  0  0  0  0  0  0  0  0  0  0  0
  188.7223  163.3584  118.0340 C   0  0  1  0  0  0  0  0  0  0  0  0
  189.2569  162.1621  117.2322 C   0  0  0  0  0  0  0  0  0  0  0  0
  189.3417  163.3085  119.2586 O   0  0  0  0  0  0  0  0  0  0  0  0
  189.3417  164.0208  123.4625 C   0  0  1  0  0  0  0  0  0  0  0  0
  188.5751  165.3148  123.4863 C   0  0  0  0  0  0  0  0  0  0  0  0
  188.8240  163.1652  124.4328 O   0  0  0  0  0  0  0  0  0  0  0  0
  191.3565  161.7761  135.7082 C   0  0  0  0  0  0  0  0  0  0  0  0
  191.2198  162.3834  136.8742 C   0  0  0  0  0  0  0  0  0  0  0  0
  191.6486  161.4818  137.9298 C   0  0  0  0  0  0  0  0  0  0  0  0
  191.6602  161.7128  139.1863 O   0  0  0  0  0  0  0  0  0  0  0  0
  192.0481  160.3118  137.3286 O   0  0  0  0  0  0  0  0  0  0  0  0
  191.8788  160.4269  135.9356 C   0  0  0  0  0  0  0  0  0  0  0  0
  1  2  1  0
  2  3  1  0
  3  4  1  0
  4  5  1  1
  4  6  1  0
  6  7  1  6
  7  8  1  0
  9  8  1  1
  9 10  1  0
 10 11  1  0
 11 12  1  0
 12 13  1  0
 13 14  1  0
 14 15  1  1
 14 16  1  0
 16 17  1  1
 17 18  1  0
 18 19  1  0
 19 20  1  1
 11 21  1  6
 22 21  1  1
 22 23  1  0
 23 24  1  0
 24 25  1  1
 24 26  1  0
 26 27  1  6
 28 27  1  1
 28 29  1  0
 29 30  1  0
 30 31  1  6
 30 32  1  0
 32 33  1  1
 34 33  1  1
 34 35  1  0
 35 36  1  0
 36 37  1  6
 37 38  1  0
 38 39  1  0
 38 40  2  0
 36 41  1  0
 41 42  1  6
 41 43  1  0
 43 44  1  1
 43 45  1  0
 32 46  1  0
 46 47  1  6
 46 48  1  0
 26 49  1  0
 49 50  1  6
 49 51  1  0
  1 52  1  1
 52 53  2  0
 53 54  1  0
 54 55  2  0
 54 56  1  0
 56 57  1  0
 19  1  1  0
 51 22  1  0
 57 52  1  0
 19  4  1  0
 48 28  1  0
 16  6  1  0
 45 34  1  0
 14  9  1  0
M  END
$$$$
