
     RDKit          3D

 57 64  0  0  0  0  0  0  0  0999 V2000
  167.6968  156.8161  129.2634 C   0  0  1  0  0  0  0  0  0  0  0  0
  166.3103  156.7693  129.9033 C   0  0  0  0  0  0  0  0  0  0  0  0
  165.6720  155.5051  129.3058 C   0  0  0  0  0  0  0  0  0  0  0  0
  166.2047  155.5914  127.8859 C   0  0  2  0  0  0  0  0  0  0  0  0
  165.6434  156.6839  127.2197 O   0  0  0  0  0  0  0  0  0  0  0  0
  165.9996  154.3736  127.0705 C   0  0  2  0  0  0  0  0  0  0  0  0
  164.5207  154.0510  126.8891 C   0  0  0  0  0  0  0  0  0  0  0  0
  164.4102  153.0699  125.7419 C   0  0  0  0  0  0  0  0  0  0  0  0
  165.1997  151.8100  126.0100 C   0  0  2  0  0  0  0  0  0  0  0  0
  164.5067  151.0492  127.0929 C   0  0  0  0  0  0  0  0  0  0  0  0
  165.2093  149.7644  127.4648 C   0  0  2  0  0  0  0  0  0  0  0  0
  166.6366  150.0713  127.7695 C   0  0  0  0  0  0  0  0  0  0  0  0
  167.3516  150.8684  126.7359 C   0  0  0  0  0  0  0  0  0  0  0  0
  166.6341  152.1482  126.3635 C   0  0  1  0  0  0  0  0  0  0  0  0
  167.2935  152.6857  125.1273 C   0  0  0  0  0  0  0  0  0  0  0  0
  166.6745  153.1417  127.5261 C   0  0  1  0  0  0  0  0  0  0  0  0
  168.1063  153.3319  127.9377 C   0  0  0  0  0  0  0  0  0  0  0  0
  168.3679  154.5846  128.6742 C   0  0  0  0  0  0  0  0  0  0  0  0
  167.6614  155.8227  128.1452 C   0  0  2  0  0  0  0  0  0  0  0  0
  168.3554  156.3273  126.8882 C   0  0  0  0  0  0  0  0  0  0  0  0
  165.0313  148.8281  126.4477 O   0  0  0  0  0  0  0  0  0  0  0  0
  164.1353  147.8486  126.7845 C   0  0  1  0  0  0  0  0  0  0  0  0
  162.8358  147.8981  125.9812 C   0  0  0  0  0  0  0  0  0  0  0  0
  161.9051  146.9268  126.7079 C   0  0  2  0  0  0  0  0  0  0  0  0
  161.7385  147.3019  128.0338 O   0  0  0  0  0  0  0  0  0  0  0  0
  162.5611  145.5521  126.7152 C   0  0  2  0  0  0  0  0  0  0  0  0
  161.8536  144.7156  127.5755 O   0  0  0  0  0  0  0  0  0  0  0  0
  160.5654  144.4245  127.1313 C   0  0  1  0  0  0  0  0  0  0  0  0
  160.0466  143.1357  127.7319 C   0  0  0  0  0  0  0  0  0  0  0  0
  158.8377  143.4764  128.5767 C   0  0  2  0  0  0  0  0  0  0  0  0
  158.3160  142.3640  129.2168 O   0  0  0  0  0  0  0  0  0  0  0  0
  157.8263  144.1246  127.6418 C   0  0  2  0  0  0  0  0  0  0  0  0
  157.5772  143.2136  126.6298 O   0  0  0  0  0  0  0  0  0  0  0  0
  156.3158  142.6398  126.7024 C   0  0  1  0  0  0  0  0  0  0  0  0
  155.6126  142.5529  125.3859 C   0  0  0  0  0  0  0  0  0  0  0  0
  154.4714  141.5675  125.5192 C   0  0  2  0  0  0  0  0  0  0  0  0
  153.5056  142.0139  126.4508 O   0  0  0  0  0  0  0  0  0  0  0  0
  152.1937  141.5670  126.4092 C   0  0  0  0  0  0  0  0  0  0  0  0
  151.7994  140.3496  125.6485 C   0  0  0  0  0  0  0  0  0  0  0  0
  151.3259  142.2263  127.0415 O   0  0  0  0  0  0  0  0  0  0  0  0
  154.9218  140.2074  125.9385 C   0  0  2  0  0  0  0  0  0  0  0  0
  153.9637  139.5212  126.6794 O   0  0  0  0  0  0  0  0  0  0  0  0
  156.2340  140.3206  126.6741 C   0  0  1  0  0  0  0  0  0  0  0  0
  157.3612  140.1747  125.6841 C   0  0  0  0  0  0  0  0  0  0  0  0
  156.3992  141.4668  127.3933 O   0  0  0  0  0  0  0  0  0  0  0  0
  158.4520  145.4040  127.1485 C   0  0  1  0  0  0  0  0  0  0  0  0
  157.7317  146.5588  127.8608 C   0  0  0  0  0  0  0  0  0  0  0  0
  159.7804  145.5178  127.4773 O   0  0  0  0  0  0  0  0  0  0  0  0
  163.9532  145.6779  127.2975 C   0  0  1  0  0  0  0  0  0  0  0  0
  164.6697  144.3554  127.2901 C   0  0  0  0  0  0  0  0  0  0  0  0
  164.6885  146.6001  126.5556 O   0  0  0  0  0  0  0  0  0  0  0  0
  168.0488  158.2078  128.8687 C   0  0  0  0  0  0  0  0  0  0  0  0
  168.6773  159.0214  129.6994 C   0  0  0  0  0  0  0  0  0  0  0  0
  168.8798  160.3021  129.0438 C   0  0  0  0  0  0  0  0  0  0  0  0
  169.4522  161.3365  129.5283 O   0  0  0  0  0  0  0  0  0  0  0  0
  168.3371  160.2052  127.7845 O   0  0  0  0  0  0  0  0  0  0  0  0
  167.8094  158.9119  127.6071 C   0  0  0  0  0  0  0  0  0  0  0  0
  1  2  1  0
  2  3  1  0
  3  4  1  0
  4  5  1  6
  4  6  1  0
  6  7  1  1
  7  8  1  0
  9  8  1  1
  9 10  1  0
 10 11  1  0
 11 12  1  0
 12 13  1  0
 13 14  1  0
 14 15  1  6
 14 16  1  0
 16 17  1  6
 17 18  1  0
 18 19  1  0
 19 20  1  6
 11 21  1  6
 22 21  1  6
 22 23  1  0
 23 24  1  0
 24 25  1  1
 24 26  1  0
 26 27  1  1
 28 27  1  1
 28 29  1  0
 29 30  1  0
 30 31  1  6
 30 32  1  0
 32 33  1  6
 34 33  1  6
 34 35  1  0
 35 36  1  0
 36 37  1  1
 37 38  1  0
 38 39  1  0
 38 40  2  0
 36 41  1  0
 41 42  1  1
 41 43  1  0
 43 44  1  6
 43 45  1  0
 32 46  1  0
 46 47  1  1
 46 48  1  0
 26 49  1  0
 49 50  1  6
 49 51  1  0
  1 52  1  6
 52 53  2  0
 53 54  1  0
 54 55  2  0
 54 56  1  0
 56 57  1  0
 19  1  1  0
 51 22  1  0
 57 52  1  0
 19  4  1  0
 48 28  1  0
 16  6  1  0
 45 34  1  0
 14  9  1  0
M  END
$$$$
