
     RDKit          3D

 57 64  0  0  0  0  0  0  0  0999 V2000
  177.6520  174.5314  140.8299 C   0  0  1  0  0  0  0  0  0  0  0  0
  178.6373  174.6136  141.9946 C   0  0  0  0  0  0  0  0  0  0  0  0
  178.7980  173.1526  142.4442 C   0  0  0  0  0  0  0  0  0  0  0  0
  177.3688  172.6685  142.2698 C   0  0  2  0  0  0  0  0  0  0  0  0
  176.5269  173.2889  143.1966 O   0  0  0  0  0  0  0  0  0  0  0  0
  177.1935  171.2023  142.3668 C   0  0  2  0  0  0  0  0  0  0  0  0
  177.5974  170.6689  143.7367 C   0  0  0  0  0  0  0  0  0  0  0  0
  177.0125  169.2794  143.8704 C   0  0  0  0  0  0  0  0  0  0  0  0
  177.5052  168.3612  142.7764 C   0  0  2  0  0  0  0  0  0  0  0  0
  178.9510  168.0782  143.0238 C   0  0  0  0  0  0  0  0  0  0  0  0
  179.5696  167.1734  141.9839 C   0  0  2  0  0  0  0  0  0  0  0  0
  179.2945  167.7409  140.6324 C   0  0  0  0  0  0  0  0  0  0  0  0
  177.8710  168.0804  140.3616 C   0  0  0  0  0  0  0  0  0  0  0  0
  177.2583  168.9789  141.4146 C   0  0  1  0  0  0  0  0  0  0  0  0
  175.7758  168.9919  141.1821 C   0  0  0  0  0  0  0  0  0  0  0  0
  177.8726  170.3782  141.3469 C   0  0  1  0  0  0  0  0  0  0  0  0
  177.7350  170.8889  139.9411 C   0  0  0  0  0  0  0  0  0  0  0  0
  177.8112  172.3581  139.8158 C   0  0  0  0  0  0  0  0  0  0  0  0
  177.0750  173.1520  140.8832 C   0  0  2  0  0  0  0  0  0  0  0  0
  175.5770  173.1305  140.6149 C   0  0  0  0  0  0  0  0  0  0  0  0
  179.1004  165.8732  142.1633 O   0  0  0  0  0  0  0  0  0  0  0  0
  180.0280  164.9264  141.8183 C   0  0  1  0  0  0  0  0  0  0  0  0
  181.1420  164.7491  142.8496 C   0  0  0  0  0  0  0  0  0  0  0  0
  182.1813  163.8824  142.1381 C   0  0  2  0  0  0  0  0  0  0  0  0
  182.6154  164.4923  140.9693 O   0  0  0  0  0  0  0  0  0  0  0  0
  181.5155  162.5734  141.7341 C   0  0  2  0  0  0  0  0  0  0  0  0
  182.3652  161.8767  140.8778 O   0  0  0  0  0  0  0  0  0  0  0  0
  183.7162  162.1091  141.1269 C   0  0  1  0  0  0  0  0  0  0  0  0
  184.4754  160.8161  141.3334 C   0  0  0  0  0  0  0  0  0  0  0  0
  185.5006  160.7032  140.2254 C   0  0  2  0  0  0  0  0  0  0  0  0
  186.2179  159.5201  140.2944 O   0  0  0  0  0  0  0  0  0  0  0  0
  186.4006  161.9252  140.3438 C   0  0  2  0  0  0  0  0  0  0  0  0
  186.9353  161.9048  141.6205 O   0  0  0  0  0  0  0  0  0  0  0  0
  188.3215  161.8430  141.6371 C   0  0  1  0  0  0  0  0  0  0  0  0
  188.9636  162.8685  142.5155 C   0  0  0  0  0  0  0  0  0  0  0  0
  190.3950  162.4482  142.7709 C   0  0  2  0  0  0  0  0  0  0  0  0
  191.1513  162.4265  141.5760 O   0  0  0  0  0  0  0  0  0  0  0  0
  192.4478  162.9154  141.5268 C   0  0  0  0  0  0  0  0  0  0  0  0
  192.8785  164.0904  142.3330 C   0  0  0  0  0  0  0  0  0  0  0  0
  193.2695  162.3320  140.7703 O   0  0  0  0  0  0  0  0  0  0  0  0
  190.5025  161.1026  143.4086 C   0  0  2  0  0  0  0  0  0  0  0  0
  191.6713  160.4293  143.0648 O   0  0  0  0  0  0  0  0  0  0  0  0
  189.2681  160.2975  143.0868 C   0  0  1  0  0  0  0  0  0  0  0  0
  188.2476  160.5153  144.1745 C   0  0  0  0  0  0  0  0  0  0  0  0
  188.7070  160.5559  141.8715 O   0  0  0  0  0  0  0  0  0  0  0  0
  185.5318  163.1287  140.0828 C   0  0  1  0  0  0  0  0  0  0  0  0
  185.9023  163.6548  138.6879 C   0  0  0  0  0  0  0  0  0  0  0  0
  184.1925  162.8289  140.0378 O   0  0  0  0  0  0  0  0  0  0  0  0
  180.2698  162.8857  140.9319 C   0  0  1  0  0  0  0  0  0  0  0  0
  179.5427  161.6284  140.5408 C   0  0  0  0  0  0  0  0  0  0  0  0
  179.4180  163.6904  141.6860 O   0  0  0  0  0  0  0  0  0  0  0  0
  176.6608  175.6401  140.8984 C   0  0  0  0  0  0  0  0  0  0  0  0
  176.3221  176.3289  139.8224 C   0  0  0  0  0  0  0  0  0  0  0  0
  175.3473  177.3396  140.1957 C   0  0  0  0  0  0  0  0  0  0  0  0
  174.7863  178.1931  139.4282 O   0  0  0  0  0  0  0  0  0  0  0  0
  175.1288  177.2151  141.5472 O   0  0  0  0  0  0  0  0  0  0  0  0
  175.9142  176.1586  142.0468 C   0  0  0  0  0  0  0  0  0  0  0  0
  1  2  1  0
  2  3  1  0
  3  4  1  0
  4  5  1  1
  4  6  1  0
  6  7  1  1
  7  8  1  0
  9  8  1  1
  9 10  1  0
 10 11  1  0
 11 12  1  0
 12 13  1  0
 13 14  1  0
 14 15  1  6
 14 16  1  0
 16 17  1  6
 17 18  1  0
 18 19  1  0
 19 20  1  6
 11 21  1  6
 22 21  1  1
 22 23  1  0
 23 24  1  0
 24 25  1  6
 24 26  1  0
 26 27  1  6
 28 27  1  6
 28 29  1  0
 29 30  1  0
 30 31  1  1
 30 32  1  0
 32 33  1  1
 34 33  1  1
 34 35  1  0
 35 36  1  0
 36 37  1  6
 37 38  1  0
 38 39  1  0
 38 40  2  0
 36 41  1  0
 41 42  1  6
 41 43  1  0
 43 44  1  1
 43 45  1  0
 32 46  1  0
 46 47  1  6
 46 48  1  0
 26 49  1  0
 49 50  1  1
 49 51  1  0
  1 52  1  1
 52 53  2  0
 53 54  1  0
 54 55  2  0
 54 56  1  0
 56 57  1  0
 19  1  1  0
 51 22  1  0
 57 52  1  0
 19  4  1  0
 48 28  1  0
 16  6  1  0
 45 34  1  0
 14  9  1  0
M  END
$$$$
