
     RDKit          3D

 56 65  0  0  0  0  0  0  0  0999 V2000
  137.2463  184.0698  131.1780 C   0  0  2  0  0  0  0  0  0  0  0  0
  136.3568  182.8507  130.9540 C   0  0  2  0  0  0  0  0  0  0  0  0
  136.8794  181.4739  132.0193 S   0  0  0  0  0  0  0  0  0  0  0  0
  137.2485  180.0598  130.9410 C   0  0  0  0  0  0  0  0  0  0  0  0
  138.2939  179.2203  131.5915 C   0  0  1  0  0  0  0  0  0  0  0  0
  137.8055  178.6626  132.8395 N   0  0  0  0  0  0  0  0  0  0  0  0
  136.5716  177.9560  132.7151 C   0  0  0  0  0  0  0  0  0  0  0  0
  136.5762  176.9073  131.6346 C   0  0  0  0  0  0  0  0  0  0  0  0
  137.7776  176.9707  130.7830 C   0  0  0  0  0  0  0  0  0  0  0  0
  138.6336  178.0517  130.7235 C   0  0  0  0  0  0  0  0  0  0  0  0
  139.6125  177.7632  129.8501 N   0  0  0  0  0  0  0  0  0  0  0  0
  139.4211  176.5345  129.3421 C   0  0  0  0  0  0  0  0  0  0  0  0
  140.1029  175.7491  128.4252 C   0  0  0  0  0  0  0  0  0  0  0  0
  139.6604  174.4703  128.0759 C   0  0  0  0  0  0  0  0  0  0  0  0
  138.5162  173.9545  128.6462 C   0  0  0  0  0  0  0  0  0  0  0  0
  138.0059  172.6972  128.3582 O   0  0  0  0  0  0  0  0  0  0  0  0
  136.6041  172.6187  128.1021 C   0  0  0  0  0  0  0  0  0  0  0  0
  137.8395  174.7379  129.5584 C   0  0  0  0  0  0  0  0  0  0  0  0
  138.2652  176.0008  129.9116 C   0  0  0  0  0  0  0  0  0  0  0  0
  139.4926  180.0398  131.8901 C   0  0  0  0  0  0  0  0  0  0  0  0
  140.3693  179.5189  132.6851 O   0  0  0  0  0  0  0  0  0  0  0  0
  139.7793  181.2795  131.4250 O   0  0  0  0  0  0  0  0  0  0  0  0
  139.8604  181.7956  130.1444 C   0  0  0  0  0  0  0  0  0  0  0  0
  138.9828  183.0218  129.9385 C   0  0  2  0  0  0  0  0  0  0  0  0
  138.5858  183.6113  131.1894 N   0  0  0  0  0  0  0  0  0  0  0  0
  139.5479  184.6221  131.5759 C   0  0  1  0  0  0  0  0  0  0  0  0
  139.6485  185.6304  130.6349 O   0  0  0  0  0  0  0  0  0  0  0  0
  139.0812  185.1713  132.9314 C   0  0  2  0  0  0  0  0  0  0  0  0
  138.9280  184.0235  133.8612 C   0  0  0  0  0  0  0  0  0  0  0  0
  137.5419  183.7673  134.3386 C   0  0  0  0  0  0  0  0  0  0  0  0
  137.3002  183.1024  135.5304 C   0  0  0  0  0  0  0  0  0  0  0  0
  136.0085  182.8847  135.9474 C   0  0  0  0  0  0  0  0  0  0  0  0
  135.7282  182.1616  137.2443 C   0  0  0  0  0  0  0  0  0  0  0  0
  134.9471  183.3250  135.1853 C   0  0  0  0  0  0  0  0  0  0  0  0
  133.6638  183.0821  135.6472 O   0  0  0  0  0  0  0  0  0  0  0  0
  133.0271  184.1184  136.3955 C   0  0  0  0  0  0  0  0  0  0  0  0
  135.2196  183.9920  133.9894 C   0  0  0  0  0  0  0  0  0  0  0  0
  134.1323  184.4238  133.2464 O   0  0  0  0  0  0  0  0  0  0  0  0
  136.5001  184.2114  133.5687 C   0  0  0  0  0  0  0  0  0  0  0  0
  136.8287  184.9159  132.3193 C   0  0  1  0  0  0  0  0  0  0  0  0
  137.8601  185.8647  132.7104 N   0  0  0  0  0  0  0  0  0  0  0  0
  137.9394  187.0128  131.8830 C   0  0  0  0  0  0  0  0  0  0  0  0
  137.8593  182.6318  129.0526 C   0  0  0  0  0  0  0  0  0  0  0  0
  138.1061  182.3480  127.6996 C   0  0  0  0  0  0  0  0  0  0  0  0
  139.2514  182.3544  126.9210 O   0  0  0  0  0  0  0  0  0  0  0  0
  138.9315  182.3334  125.5428 C   0  0  0  0  0  0  0  0  0  0  0  0
  137.6384  181.7584  125.5779 O   0  0  0  0  0  0  0  0  0  0  0  0
  137.0798  181.9700  126.8503 C   0  0  0  0  0  0  0  0  0  0  0  0
  135.8070  181.8773  127.3601 C   0  0  0  0  0  0  0  0  0  0  0  0
  134.6810  181.4788  126.4965 C   0  0  0  0  0  0  0  0  0  0  0  0
  135.5552  182.1587  128.7054 C   0  0  0  0  0  0  0  0  0  0  0  0
  134.2877  182.0732  129.2405 O   0  0  0  0  0  0  0  0  0  0  0  0
  133.4026  183.1526  129.2369 C   0  0  0  0  0  0  0  0  0  0  0  0
  133.9475  184.5171  129.2610 C   0  0  0  0  0  0  0  0  0  0  0  0
  132.1846  182.8755  129.2129 O   0  0  0  0  0  0  0  0  0  0  0  0
  136.5725  182.5294  129.5299 C   0  0  0  0  0  0  0  0  0  0  0  0
  1  2  1  0
  2  3  1  1
  3  4  1  0
  4  5  1  0
  5  6  1  1
  6  7  1  0
  7  8  1  0
  8  9  1  0
  9 10  2  0
 10 11  1  0
 11 12  1  0
 12 13  2  0
 13 14  1  0
 14 15  2  0
 15 16  1  0
 16 17  1  0
 15 18  1  0
 18 19  2  0
  5 20  1  0
 20 21  2  0
 20 22  1  0
 22 23  1  0
 24 23  1  1
 24 25  1  0
 25 26  1  0
 26 27  1  6
 26 28  1  0
 28 29  1  1
 29 30  1  0
 30 31  2  0
 31 32  1  0
 32 33  1  0
 32 34  2  0
 34 35  1  0
 35 36  1  0
 34 37  1  0
 37 38  1  0
 37 39  2  0
 40 39  1  1
 40 41  1  0
 41 42  1  0
 24 43  1  0
 43 44  2  0
 44 45  1  0
 45 46  1  0
 46 47  1  0
 47 48  1  0
 48 49  2  0
 49 50  1  0
 49 51  1  0
 51 52  1  0
 52 53  1  0
 53 54  1  0
 53 55  2  0
 51 56  2  0
  1 25  1  1
 41 28  1  0
 56 43  1  0
 40  1  1  0
 48 44  1  0
 56  2  1  0
 10  5  1  0
 19 12  1  0
 39 30  1  0
 19  9  1  0
M  END
$$$$
