
     RDKit          3D

 56 65  0  0  0  0  0  0  0  0999 V2000
  201.9980  133.5474  134.8746 C   0  0  2  0  0  0  0  0  0  0  0  0
  203.2090  132.9125  134.1978 C   0  0  2  0  0  0  0  0  0  0  0  0
  204.6101  132.8194  135.3519 S   0  0  0  0  0  0  0  0  0  0  0  0
  206.0019  133.7051  134.5924 C   0  0  0  0  0  0  0  0  0  0  0  0
  206.8587  134.2696  135.6732 C   0  0  1  0  0  0  0  0  0  0  0  0
  207.4414  133.2102  136.4764 N   0  0  0  0  0  0  0  0  0  0  0  0
  208.1411  132.2249  135.7168 C   0  0  0  0  0  0  0  0  0  0  0  0
  209.1663  132.7970  134.7741 C   0  0  0  0  0  0  0  0  0  0  0  0
  209.0887  134.2652  134.6692 C   0  0  0  0  0  0  0  0  0  0  0  0
  208.0094  135.0193  135.0833 C   0  0  0  0  0  0  0  0  0  0  0  0
  208.2824  136.3114  134.8374 N   0  0  0  0  0  0  0  0  0  0  0  0
  209.4993  136.4209  134.2792 C   0  0  0  0  0  0  0  0  0  0  0  0
  210.2671  137.4854  133.8323 C   0  0  0  0  0  0  0  0  0  0  0  0
  211.5366  137.2983  133.2787 C   0  0  0  0  0  0  0  0  0  0  0  0
  212.0607  136.0284  133.1636 C   0  0  0  0  0  0  0  0  0  0  0  0
  213.3099  135.7514  132.6277 O   0  0  0  0  0  0  0  0  0  0  0  0
  213.7618  134.4011  132.7225 C   0  0  0  0  0  0  0  0  0  0  0  0
  211.2948  134.9707  133.6090 C   0  0  0  0  0  0  0  0  0  0  0  0
  210.0412  135.1415  134.1570 C   0  0  0  0  0  0  0  0  0  0  0  0
  206.0497  135.1337  136.5659 C   0  0  0  0  0  0  0  0  0  0  0  0
  206.5905  135.4763  137.6892 O   0  0  0  0  0  0  0  0  0  0  0  0
  204.8014  135.6094  136.3414 O   0  0  0  0  0  0  0  0  0  0  0  0
  204.2581  136.3377  135.2986 C   0  0  0  0  0  0  0  0  0  0  0  0
  203.0248  135.6834  134.6927 C   0  0  2  0  0  0  0  0  0  0  0  0
  202.4611  134.6912  135.5687 N   0  0  0  0  0  0  0  0  0  0  0  0
  201.4620  135.3057  136.4178 C   0  0  1  0  0  0  0  0  0  0  0  0
  200.4340  135.8707  135.6855 O   0  0  0  0  0  0  0  0  0  0  0  0
  200.9404  134.2000  137.3465 C   0  0  2  0  0  0  0  0  0  0  0  0
  202.1074  133.5971  138.0392 C   0  0  0  0  0  0  0  0  0  0  0  0
  202.3693  132.1662  137.7246 C   0  0  0  0  0  0  0  0  0  0  0  0
  203.0587  131.3479  138.6053 C   0  0  0  0  0  0  0  0  0  0  0  0
  203.2811  130.0287  138.2887 C   0  0  0  0  0  0  0  0  0  0  0  0
  204.0309  129.1234  139.2382 C   0  0  0  0  0  0  0  0  0  0  0  0
  202.8210  129.5117  137.0962 C   0  0  0  0  0  0  0  0  0  0  0  0
  203.0695  128.1767  136.8217 O   0  0  0  0  0  0  0  0  0  0  0  0
  202.0752  127.2290  137.2121 C   0  0  0  0  0  0  0  0  0  0  0  0
  202.1294  130.3586  136.2279 C   0  0  0  0  0  0  0  0  0  0  0  0
  201.6780  129.8096  135.0380 O   0  0  0  0  0  0  0  0  0  0  0  0
  201.9052  131.6700  136.5356 C   0  0  0  0  0  0  0  0  0  0  0  0
  201.1752  132.5922  135.6514 C   0  0  1  0  0  0  0  0  0  0  0  0
  200.2385  133.2641  136.5390 N   0  0  0  0  0  0  0  0  0  0  0  0
  199.0731  133.7509  135.8956 C   0  0  0  0  0  0  0  0  0  0  0  0
  203.3920  135.1842  133.3453 C   0  0  0  0  0  0  0  0  0  0  0  0
  203.6475  136.0982  132.3103 C   0  0  0  0  0  0  0  0  0  0  0  0
  203.6282  137.4812  132.2376 O   0  0  0  0  0  0  0  0  0  0  0  0
  203.6185  137.9213  130.8929 C   0  0  0  0  0  0  0  0  0  0  0  0
  204.1899  136.8017  130.2417 O   0  0  0  0  0  0  0  0  0  0  0  0
  204.0037  135.6632  131.0449 C   0  0  0  0  0  0  0  0  0  0  0  0
  204.1031  134.3112  130.8199 C   0  0  0  0  0  0  0  0  0  0  0  0
  204.4792  133.7984  129.4902 C   0  0  0  0  0  0  0  0  0  0  0  0
  203.8499  133.3968  131.8457 C   0  0  0  0  0  0  0  0  0  0  0  0
  203.9427  132.0361  131.6453 O   0  0  0  0  0  0  0  0  0  0  0  0
  203.2050  131.3755  130.6614 C   0  0  0  0  0  0  0  0  0  0  0  0
  201.8921  130.8172  131.0139 C   0  0  0  0  0  0  0  0  0  0  0  0
  203.7247  131.3046  129.5275 O   0  0  0  0  0  0  0  0  0  0  0  0
  203.5004  133.8371  133.0852 C   0  0  0  0  0  0  0  0  0  0  0  0
  1  2  1  0
  2  3  1  1
  3  4  1  0
  4  5  1  0
  5  6  1  1
  6  7  1  0
  7  8  1  0
  8  9  1  0
  9 10  2  0
 10 11  1  0
 11 12  1  0
 12 13  2  0
 13 14  1  0
 14 15  2  0
 15 16  1  0
 16 17  1  0
 15 18  1  0
 18 19  2  0
  5 20  1  0
 20 21  2  0
 20 22  1  0
 22 23  1  0
 24 23  1  1
 24 25  1  0
 25 26  1  0
 26 27  1  6
 26 28  1  0
 28 29  1  6
 29 30  1  0
 30 31  2  0
 31 32  1  0
 32 33  1  0
 32 34  2  0
 34 35  1  0
 35 36  1  0
 34 37  1  0
 37 38  1  0
 37 39  2  0
 40 39  1  1
 40 41  1  0
 41 42  1  0
 24 43  1  0
 43 44  2  0
 44 45  1  0
 45 46  1  0
 46 47  1  0
 47 48  1  0
 48 49  2  0
 49 50  1  0
 49 51  1  0
 51 52  1  0
 52 53  1  0
 53 54  1  0
 53 55  2  0
 51 56  2  0
  1 25  1  1
 41 28  1  0
 56 43  1  0
 40  1  1  0
 48 44  1  0
 56  2  1  0
 10  5  1  0
 19 12  1  0
 39 30  1  0
 19  9  1  0
M  END
$$$$
