
     RDKit          3D

 56 65  0  0  0  0  0  0  0  0999 V2000
  191.4241  161.6417  128.7807 C   0  0  2  0  0  0  0  0  0  0  0  0
  190.4332  161.4442  127.6377 C   0  0  2  0  0  0  0  0  0  0  0  0
  189.8566  159.7214  127.5824 S   0  0  0  0  0  0  0  0  0  0  0  0
  190.2395  159.0710  125.9305 C   0  0  0  0  0  0  0  0  0  0  0  0
  190.4659  157.6016  126.0338 C   0  0  1  0  0  0  0  0  0  0  0  0
  189.2585  156.9225  126.4677 N   0  0  0  0  0  0  0  0  0  0  0  0
  188.1098  157.2190  125.6742 C   0  0  0  0  0  0  0  0  0  0  0  0
  188.3230  157.0238  124.1964 C   0  0  0  0  0  0  0  0  0  0  0  0
  189.7342  156.7753  123.8515 C   0  0  0  0  0  0  0  0  0  0  0  0
  190.7982  157.0333  124.6919 C   0  0  0  0  0  0  0  0  0  0  0  0
  191.9289  156.6879  124.0542 N   0  0  0  0  0  0  0  0  0  0  0  0
  191.6353  156.2156  122.8314 C   0  0  0  0  0  0  0  0  0  0  0  0
  192.3897  155.7296  121.7746 C   0  0  0  0  0  0  0  0  0  0  0  0
  191.7990  155.2937  120.5854 C   0  0  0  0  0  0  0  0  0  0  0  0
  190.4292  155.3392  120.4363 C   0  0  0  0  0  0  0  0  0  0  0  0
  189.7603  154.9279  119.2928 O   0  0  0  0  0  0  0  0  0  0  0  0
  189.2499  153.5951  119.2944 C   0  0  0  0  0  0  0  0  0  0  0  0
  189.6806  155.8233  121.4893 C   0  0  0  0  0  0  0  0  0  0  0  0
  190.2508  156.2563  122.6676 C   0  0  0  0  0  0  0  0  0  0  0  0
  191.5346  157.3189  127.0216 C   0  0  0  0  0  0  0  0  0  0  0  0
  191.6567  156.0917  127.4103 O   0  0  0  0  0  0  0  0  0  0  0  0
  192.4042  158.2016  127.5692 O   0  0  0  0  0  0  0  0  0  0  0  0
  193.2905  159.1027  127.0077 C   0  0  0  0  0  0  0  0  0  0  0  0
  193.0970  160.5247  127.5143 C   0  0  2  0  0  0  0  0  0  0  0  0
  192.3348  160.5586  128.7339 N   0  0  0  0  0  0  0  0  0  0  0  0
  193.2327  160.4986  129.8684 C   0  0  1  0  0  0  0  0  0  0  0  0
  194.1217  161.5577  129.8840 O   0  0  0  0  0  0  0  0  0  0  0  0
  192.3486  160.4965  131.1236 C   0  0  2  0  0  0  0  0  0  0  0  0
  191.3781  159.3797  130.9968 C   0  0  0  0  0  0  0  0  0  0  0  0
  189.9478  159.7817  130.9089 C   0  0  0  0  0  0  0  0  0  0  0  0
  188.9306  158.9154  131.2769 C   0  0  0  0  0  0  0  0  0  0  0  0
  187.6188  159.3172  131.1891 C   0  0  0  0  0  0  0  0  0  0  0  0
  186.4981  158.3847  131.5866 C   0  0  0  0  0  0  0  0  0  0  0  0
  187.3066  160.5814  130.7355 C   0  0  0  0  0  0  0  0  0  0  0  0
  185.9704  160.9404  130.6646 O   0  0  0  0  0  0  0  0  0  0  0  0
  185.5768  161.8013  129.5955 C   0  0  0  0  0  0  0  0  0  0  0  0
  188.3512  161.4332  130.3717 C   0  0  0  0  0  0  0  0  0  0  0  0
  188.0059  162.6977  129.9214 O   0  0  0  0  0  0  0  0  0  0  0  0
  189.6565  161.0408  130.4560 C   0  0  0  0  0  0  0  0  0  0  0  0
  190.7852  161.9106  130.0893 C   0  0  1  0  0  0  0  0  0  0  0  0
  191.7156  161.7671  131.1986 N   0  0  0  0  0  0  0  0  0  0  0  0
  192.5753  162.8786  131.3853 C   0  0  0  0  0  0  0  0  0  0  0  0
  192.5278  161.3277  126.4050 C   0  0  0  0  0  0  0  0  0  0  0  0
  193.3222  161.6327  125.2879 C   0  0  0  0  0  0  0  0  0  0  0  0
  194.6331  161.3440  124.9467 O   0  0  0  0  0  0  0  0  0  0  0  0
  195.0750  162.1629  123.8807 C   0  0  0  0  0  0  0  0  0  0  0  0
  193.8406  162.5063  123.2788 O   0  0  0  0  0  0  0  0  0  0  0  0
  192.8157  162.3706  124.2312 C   0  0  0  0  0  0  0  0  0  0  0  0
  191.5124  162.8014  124.2972 C   0  0  0  0  0  0  0  0  0  0  0  0
  190.9271  163.5897  123.1978 C   0  0  0  0  0  0  0  0  0  0  0  0
  190.7172  162.5013  125.4062 C   0  0  0  0  0  0  0  0  0  0  0  0
  189.4075  162.9220  125.4962 O   0  0  0  0  0  0  0  0  0  0  0  0
  189.0486  164.2676  125.4007 C   0  0  0  0  0  0  0  0  0  0  0  0
  189.4651  165.1904  126.4659 C   0  0  0  0  0  0  0  0  0  0  0  0
  188.3848  164.5981  124.3952 O   0  0  0  0  0  0  0  0  0  0  0  0
  191.2268  161.7754  126.4385 C   0  0  0  0  0  0  0  0  0  0  0  0
  1  2  1  0
  2  3  1  6
  3  4  1  0
  4  5  1  0
  5  6  1  1
  6  7  1  0
  7  8  1  0
  8  9  1  0
  9 10  2  0
 10 11  1  0
 11 12  1  0
 12 13  2  0
 13 14  1  0
 14 15  2  0
 15 16  1  0
 16 17  1  0
 15 18  1  0
 18 19  2  0
  5 20  1  0
 20 21  2  0
 20 22  1  0
 22 23  1  0
 24 23  1  6
 24 25  1  0
 25 26  1  0
 26 27  1  1
 26 28  1  0
 28 29  1  6
 29 30  1  0
 30 31  2  0
 31 32  1  0
 32 33  1  0
 32 34  2  0
 34 35  1  0
 35 36  1  0
 34 37  1  0
 37 38  1  0
 37 39  2  0
 40 39  1  1
 40 41  1  0
 41 42  1  0
 24 43  1  0
 43 44  2  0
 44 45  1  0
 45 46  1  0
 46 47  1  0
 47 48  1  0
 48 49  2  0
 49 50  1  0
 49 51  1  0
 51 52  1  0
 52 53  1  0
 53 54  1  0
 53 55  2  0
 51 56  2  0
  1 25  1  1
 41 28  1  0
 56 43  1  0
 40  1  1  0
 48 44  1  0
 56  2  1  0
 10  5  1  0
 19 12  1  0
 39 30  1  0
 19  9  1  0
M  END
$$$$
