
     RDKit          3D

 56 65  0  0  0  0  0  0  0  0999 V2000
  173.3218  165.2124  111.2698 C   0  0  2  0  0  0  0  0  0  0  0  0
  174.5793  164.4551  110.8540 C   0  0  2  0  0  0  0  0  0  0  0  0
  174.6623  164.2988  109.0451 S   0  0  0  0  0  0  0  0  0  0  0  0
  174.7690  162.5283  108.6550 C   0  0  0  0  0  0  0  0  0  0  0  0
  174.1445  162.2918  107.3228 C   0  0  1  0  0  0  0  0  0  0  0  0
  174.8790  162.9825  106.2785 N   0  0  0  0  0  0  0  0  0  0  0  0
  176.2754  162.6879  106.2599 C   0  0  0  0  0  0  0  0  0  0  0  0
  176.5872  161.2149  106.2383 C   0  0  0  0  0  0  0  0  0  0  0  0
  175.3954  160.3761  106.4587 C   0  0  0  0  0  0  0  0  0  0  0  0
  174.2019  160.8393  106.9745 C   0  0  0  0  0  0  0  0  0  0  0  0
  173.3438  159.8076  107.0362 N   0  0  0  0  0  0  0  0  0  0  0  0
  173.9388  158.6934  106.5790 C   0  0  0  0  0  0  0  0  0  0  0  0
  173.5354  157.3765  106.4195 C   0  0  0  0  0  0  0  0  0  0  0  0
  174.3917  156.4000  105.9034 C   0  0  0  0  0  0  0  0  0  0  0  0
  175.6781  156.7323  105.5358 C   0  0  0  0  0  0  0  0  0  0  0  0
  176.5933  155.8288  105.0160 O   0  0  0  0  0  0  0  0  0  0  0  0
  177.9741  156.1432  105.1928 C   0  0  0  0  0  0  0  0  0  0  0  0
  176.0772  158.0434  105.6955 C   0  0  0  0  0  0  0  0  0  0  0  0
  175.2426  159.0163  106.2034 C   0  0  0  0  0  0  0  0  0  0  0  0
  172.7503  162.7957  107.3168 C   0  0  0  0  0  0  0  0  0  0  0  0
  172.1753  162.9005  106.1634 O   0  0  0  0  0  0  0  0  0  0  0  0
  172.0028  163.1623  108.3854 O   0  0  0  0  0  0  0  0  0  0  0  0
  171.6598  162.5004  109.5504 C   0  0  0  0  0  0  0  0  0  0  0  0
  172.0146  163.2818  110.8073 C   0  0  2  0  0  0  0  0  0  0  0  0
  172.2457  164.6733  110.5244 N   0  0  0  0  0  0  0  0  0  0  0  0
  171.0069  165.4092  110.6677 C   0  0  1  0  0  0  0  0  0  0  0  0
  170.4870  165.3078  111.9451 O   0  0  0  0  0  0  0  0  0  0  0  0
  171.3237  166.8684  110.3107 C   0  0  2  0  0  0  0  0  0  0  0  0
  171.9425  166.8844  108.9609 C   0  0  0  0  0  0  0  0  0  0  0  0
  173.3532  167.3558  108.9091 C   0  0  0  0  0  0  0  0  0  0  0  0
  173.8941  167.8890  107.7498 C   0  0  0  0  0  0  0  0  0  0  0  0
  175.1993  168.3204  107.7344 C   0  0  0  0  0  0  0  0  0  0  0  0
  175.8038  168.9042  106.4785 C   0  0  0  0  0  0  0  0  0  0  0  0
  175.9774  168.2262  108.8688 C   0  0  0  0  0  0  0  0  0  0  0  0
  177.2867  168.6741  108.8040 O   0  0  0  0  0  0  0  0  0  0  0  0
  177.9054  169.0761  110.0266 C   0  0  0  0  0  0  0  0  0  0  0  0
  175.4068  167.6852  110.0225 C   0  0  0  0  0  0  0  0  0  0  0  0
  176.2132  167.6051  111.1468 O   0  0  0  0  0  0  0  0  0  0  0  0
  174.1112  167.2543  110.0451 C   0  0  0  0  0  0  0  0  0  0  0  0
  173.4715  166.6853  111.2419 C   0  0  1  0  0  0  0  0  0  0  0  0
  172.1913  167.3725  111.3176 N   0  0  0  0  0  0  0  0  0  0  0  0
  171.6473  167.4484  112.6243 C   0  0  0  0  0  0  0  0  0  0  0  0
  173.1459  162.5874  111.4686 C   0  0  0  0  0  0  0  0  0  0  0  0
  172.9366  161.3389  112.0764 C   0  0  0  0  0  0  0  0  0  0  0  0
  171.8221  160.5306  112.2276 O   0  0  0  0  0  0  0  0  0  0  0  0
  172.0417  159.5377  113.2116 C   0  0  0  0  0  0  0  0  0  0  0  0
  173.4550  159.4574  113.1986 O   0  0  0  0  0  0  0  0  0  0  0  0
  173.9754  160.6608  112.6916 C   0  0  0  0  0  0  0  0  0  0  0  0
  175.2231  161.2367  112.6961 C   0  0  0  0  0  0  0  0  0  0  0  0
  176.3611  160.5544  113.3378 C   0  0  0  0  0  0  0  0  0  0  0  0
  175.4375  162.4789  112.0932 C   0  0  0  0  0  0  0  0  0  0  0  0
  176.6793  163.0774  112.0844 O   0  0  0  0  0  0  0  0  0  0  0  0
  177.1378  163.8586  113.1466 C   0  0  0  0  0  0  0  0  0  0  0  0
  177.6227  163.1895  114.3619 C   0  0  0  0  0  0  0  0  0  0  0  0
  177.1025  165.0968  112.9846 O   0  0  0  0  0  0  0  0  0  0  0  0
  174.4082  163.1355  111.4919 C   0  0  0  0  0  0  0  0  0  0  0  0
  1  2  1  0
  2  3  1  6
  3  4  1  0
  4  5  1  0
  5  6  1  6
  6  7  1  0
  7  8  1  0
  8  9  1  0
  9 10  2  0
 10 11  1  0
 11 12  1  0
 12 13  2  0
 13 14  1  0
 14 15  2  0
 15 16  1  0
 16 17  1  0
 15 18  1  0
 18 19  2  0
  5 20  1  0
 20 21  2  0
 20 22  1  0
 22 23  1  0
 24 23  1  6
 24 25  1  0
 25 26  1  0
 26 27  1  1
 26 28  1  0
 28 29  1  6
 29 30  1  0
 30 31  2  0
 31 32  1  0
 32 33  1  0
 32 34  2  0
 34 35  1  0
 35 36  1  0
 34 37  1  0
 37 38  1  0
 37 39  2  0
 40 39  1  6
 40 41  1  0
 41 42  1  0
 24 43  1  0
 43 44  2  0
 44 45  1  0
 45 46  1  0
 46 47  1  0
 47 48  1  0
 48 49  2  0
 49 50  1  0
 49 51  1  0
 51 52  1  0
 52 53  1  0
 53 54  1  0
 53 55  2  0
 51 56  2  0
  1 25  1  6
 41 28  1  0
 56 43  1  0
 40  1  1  0
 48 44  1  0
 56  2  1  0
 10  5  1  0
 19 12  1  0
 39 30  1  0
 19  9  1  0
M  END
$$$$
