
     RDKit          3D

 56 65  0  0  0  0  0  0  0  0999 V2000
  166.6728  150.1477  129.7205 C   0  0  2  0  0  0  0  0  0  0  0  0
  166.3057  149.2242  128.5630 C   0  0  2  0  0  0  0  0  0  0  0  0
  167.5847  147.9543  128.3283 S   0  0  0  0  0  0  0  0  0  0  0  0
  168.1797  148.0892  126.6177 C   0  0  0  0  0  0  0  0  0  0  0  0
  169.6010  147.6438  126.5674 C   0  0  1  0  0  0  0  0  0  0  0  0
  169.7160  146.2425  126.9279 N   0  0  0  0  0  0  0  0  0  0  0  0
  168.8709  145.3776  126.1694 C   0  0  0  0  0  0  0  0  0  0  0  0
  169.0010  145.5515  124.6794 C   0  0  0  0  0  0  0  0  0  0  0  0
  169.8124  146.7255  124.3106 C   0  0  0  0  0  0  0  0  0  0  0  0
  170.1293  147.7550  125.1735 C   0  0  0  0  0  0  0  0  0  0  0  0
  170.8763  148.6481  124.5035 N   0  0  0  0  0  0  0  0  0  0  0  0
  171.0542  148.2339  123.2381 C   0  0  0  0  0  0  0  0  0  0  0  0
  171.7218  148.7469  122.1365 C   0  0  0  0  0  0  0  0  0  0  0  0
  171.7395  148.0803  120.9083 C   0  0  0  0  0  0  0  0  0  0  0  0
  171.0815  146.8774  120.7645 C   0  0  0  0  0  0  0  0  0  0  0  0
  171.0471  146.1494  119.5843 O   0  0  0  0  0  0  0  0  0  0  0  0
  171.0749  144.7279  119.7082 C   0  0  0  0  0  0  0  0  0  0  0  0
  170.4179  146.3690  121.8622 C   0  0  0  0  0  0  0  0  0  0  0  0
  170.3927  147.0163  123.0792 C   0  0  0  0  0  0  0  0  0  0  0  0
  170.4166  148.4339  127.5205 C   0  0  0  0  0  0  0  0  0  0  0  0
  171.6024  147.9879  127.7791 O   0  0  0  0  0  0  0  0  0  0  0  0
  170.0628  149.5760  128.1572 O   0  0  0  0  0  0  0  0  0  0  0  0
  169.5962  150.7924  127.6928 C   0  0  0  0  0  0  0  0  0  0  0  0
  168.2887  151.2184  128.3448 C   0  0  2  0  0  0  0  0  0  0  0  0
  168.0366  150.4928  129.5612 N   0  0  0  0  0  0  0  0  0  0  0  0
  168.5919  151.2204  130.6834 C   0  0  1  0  0  0  0  0  0  0  0  0
  168.0394  152.4818  130.8094 O   0  0  0  0  0  0  0  0  0  0  0  0
  168.3216  150.3679  131.9314 C   0  0  2  0  0  0  0  0  0  0  0  0
  168.8793  149.0132  131.6888 C   0  0  0  0  0  0  0  0  0  0  0  0
  167.8821  147.9094  131.6429 C   0  0  0  0  0  0  0  0  0  0  0  0
  168.2418  146.5997  131.9186 C   0  0  0  0  0  0  0  0  0  0  0  0
  167.2969  145.6021  131.8728 C   0  0  0  0  0  0  0  0  0  0  0  0
  167.6730  144.1692  132.1708 C   0  0  0  0  0  0  0  0  0  0  0  0
  165.9883  145.8967  131.5535 C   0  0  0  0  0  0  0  0  0  0  0  0
  165.0725  144.8577  131.5202 O   0  0  0  0  0  0  0  0  0  0  0  0
  164.3793  144.5531  132.7309 C   0  0  0  0  0  0  0  0  0  0  0  0
  165.6539  147.2244  131.2806 C   0  0  0  0  0  0  0  0  0  0  0  0
  164.3307  147.4892  130.9644 O   0  0  0  0  0  0  0  0  0  0  0  0
  166.5872  148.2204  131.3237 C   0  0  0  0  0  0  0  0  0  0  0  0
  166.2736  149.6317  131.0499 C   0  0  1  0  0  0  0  0  0  0  0  0
  166.9153  150.3530  132.1383 N   0  0  0  0  0  0  0  0  0  0  0  0
  166.3192  151.6031  132.4400 C   0  0  0  0  0  0  0  0  0  0  0  0
  167.2173  151.1104  127.3251 C   0  0  0  0  0  0  0  0  0  0  0  0
  167.1905  152.0085  126.2460 C   0  0  0  0  0  0  0  0  0  0  0  0
  167.9939  153.0746  125.8769 O   0  0  0  0  0  0  0  0  0  0  0  0
  167.3577  153.8792  124.9021 C   0  0  0  0  0  0  0  0  0  0  0  0
  166.4510  152.9492  124.3391 O   0  0  0  0  0  0  0  0  0  0  0  0
  166.2097  151.9258  125.2720 C   0  0  0  0  0  0  0  0  0  0  0  0
  165.2571  150.9416  125.3823 C   0  0  0  0  0  0  0  0  0  0  0  0
  164.1926  150.8122  124.3710 C   0  0  0  0  0  0  0  0  0  0  0  0
  165.2784  150.0451  126.4539 C   0  0  0  0  0  0  0  0  0  0  0  0
  164.3342  149.0495  126.5870 O   0  0  0  0  0  0  0  0  0  0  0  0
  164.5410  147.7565  126.1035 C   0  0  0  0  0  0  0  0  0  0  0  0
  163.5180  147.1495  125.2406 C   0  0  0  0  0  0  0  0  0  0  0  0
  165.6037  147.1959  126.4460 O   0  0  0  0  0  0  0  0  0  0  0  0
  166.2475  150.1370  127.4049 C   0  0  0  0  0  0  0  0  0  0  0  0
  1  2  1  0
  2  3  1  6
  3  4  1  0
  4  5  1  0
  5  6  1  1
  6  7  1  0
  7  8  1  0
  8  9  1  0
  9 10  2  0
 10 11  1  0
 11 12  1  0
 12 13  2  0
 13 14  1  0
 14 15  2  0
 15 16  1  0
 16 17  1  0
 15 18  1  0
 18 19  2  0
  5 20  1  0
 20 21  2  0
 20 22  1  0
 22 23  1  0
 24 23  1  6
 24 25  1  0
 25 26  1  0
 26 27  1  1
 26 28  1  0
 28 29  1  6
 29 30  1  0
 30 31  2  0
 31 32  1  0
 32 33  1  0
 32 34  2  0
 34 35  1  0
 35 36  1  0
 34 37  1  0
 37 38  1  0
 37 39  2  0
 40 39  1  6
 40 41  1  0
 41 42  1  0
 24 43  1  0
 43 44  2  0
 44 45  1  0
 45 46  1  0
 46 47  1  0
 47 48  1  0
 48 49  2  0
 49 50  1  0
 49 51  1  0
 51 52  1  0
 52 53  1  0
 53 54  1  0
 53 55  2  0
 51 56  2  0
  1 25  1  1
 41 28  1  0
 56 43  1  0
 40  1  1  0
 48 44  1  0
 56  2  1  0
 10  5  1  0
 19 12  1  0
 39 30  1  0
 19  9  1  0
M  END
$$$$
