
     RDKit          3D

 56 65  0  0  0  0  0  0  0  0999 V2000
  188.2776  161.3431  138.1860 C   0  0  2  0  0  0  0  0  0  0  0  0
  186.8296  161.0940  137.7751 C   0  0  2  0  0  0  0  0  0  0  0  0
  185.9557  162.6684  137.5278 S   0  0  0  0  0  0  0  0  0  0  0  0
  184.5121  162.6698  138.6298 C   0  0  0  0  0  0  0  0  0  0  0  0
  184.1987  164.0767  139.0083 C   0  0  1  0  0  0  0  0  0  0  0  0
  183.8197  164.8530  137.8419 N   0  0  0  0  0  0  0  0  0  0  0  0
  182.7649  164.2713  137.0762 C   0  0  0  0  0  0  0  0  0  0  0  0
  181.5491  163.9116  137.8883 C   0  0  0  0  0  0  0  0  0  0  0  0
  181.7760  164.0328  139.3396 C   0  0  0  0  0  0  0  0  0  0  0  0
  183.0215  164.1152  139.9287 C   0  0  0  0  0  0  0  0  0  0  0  0
  182.8506  164.2155  141.2573 N   0  0  0  0  0  0  0  0  0  0  0  0
  181.5395  164.2009  141.5495 C   0  0  0  0  0  0  0  0  0  0  0  0
  180.8091  164.2731  142.7258 C   0  0  0  0  0  0  0  0  0  0  0  0
  179.4121  164.2334  142.7304 C   0  0  0  0  0  0  0  0  0  0  0  0
  178.7194  164.1196  141.5439 C   0  0  0  0  0  0  0  0  0  0  0  0
  177.3359  164.0730  141.4559 O   0  0  0  0  0  0  0  0  0  0  0  0
  176.7507  164.6243  140.2767 C   0  0  0  0  0  0  0  0  0  0  0  0
  179.4485  164.0480  140.3747 C   0  0  0  0  0  0  0  0  0  0  0  0
  180.8266  164.0860  140.3563 C   0  0  0  0  0  0  0  0  0  0  0  0
  185.3872  164.7161  139.6219 C   0  0  0  0  0  0  0  0  0  0  0  0
  185.3507  166.0016  139.7567 O   0  0  0  0  0  0  0  0  0  0  0  0
  186.5151  164.1076  140.0607 O   0  0  0  0  0  0  0  0  0  0  0  0
  186.7253  163.0739  140.9552 C   0  0  0  0  0  0  0  0  0  0  0  0
  187.5488  161.9359  140.3695 C   0  0  2  0  0  0  0  0  0  0  0  0
  188.2598  162.3440  139.1873 N   0  0  0  0  0  0  0  0  0  0  0  0
  189.5740  162.8282  139.5550 C   0  0  1  0  0  0  0  0  0  0  0  0
  190.3233  161.8601  140.1983 O   0  0  0  0  0  0  0  0  0  0  0  0
  190.2508  163.2813  138.2536 C   0  0  2  0  0  0  0  0  0  0  0  0
  189.3540  164.2612  137.5896 C   0  0  0  0  0  0  0  0  0  0  0  0
  188.8074  163.8377  136.2717 C   0  0  0  0  0  0  0  0  0  0  0  0
  188.3909  164.7662  135.3309 C   0  0  0  0  0  0  0  0  0  0  0  0
  187.8947  164.3442  134.1202 C   0  0  0  0  0  0  0  0  0  0  0  0
  187.4364  165.3439  133.0838 C   0  0  0  0  0  0  0  0  0  0  0  0
  187.8082  162.9982  133.8340 C   0  0  0  0  0  0  0  0  0  0  0  0
  187.3014  162.6221  132.6007 O   0  0  0  0  0  0  0  0  0  0  0  0
  188.2230  162.5193  131.5148 C   0  0  0  0  0  0  0  0  0  0  0  0
  188.2351  162.0850  134.8000 C   0  0  0  0  0  0  0  0  0  0  0  0
  188.1374  160.7394  134.4824 O   0  0  0  0  0  0  0  0  0  0  0  0
  188.7287  162.4968  136.0048 C   0  0  0  0  0  0  0  0  0  0  0  0
  189.1951  161.5669  137.0454 C   0  0  1  0  0  0  0  0  0  0  0  0
  190.4738  162.1199  137.4649 N   0  0  0  0  0  0  0  0  0  0  0  0
  191.3719  161.1658  138.0055 C   0  0  0  0  0  0  0  0  0  0  0  0
  186.6466  160.7741  140.1803 C   0  0  0  0  0  0  0  0  0  0  0  0
  186.1499  160.0891  141.3010 C   0  0  0  0  0  0  0  0  0  0  0  0
  186.3238  160.2479  142.6658 O   0  0  0  0  0  0  0  0  0  0  0  0
  185.8936  159.0996  143.3720 C   0  0  0  0  0  0  0  0  0  0  0  0
  184.9791  158.5438  142.4454 O   0  0  0  0  0  0  0  0  0  0  0  0
  185.2966  159.0080  141.1571 C   0  0  0  0  0  0  0  0  0  0  0  0
  184.9431  158.6158  139.8884 C   0  0  0  0  0  0  0  0  0  0  0  0
  184.0374  157.4712  139.6828 C   0  0  0  0  0  0  0  0  0  0  0  0
  185.4343  159.2933  138.7694 C   0  0  0  0  0  0  0  0  0  0  0  0
  185.0947  158.9194  137.4868 O   0  0  0  0  0  0  0  0  0  0  0  0
  185.7322  157.8700  136.8227 C   0  0  0  0  0  0  0  0  0  0  0  0
  187.0216  157.3854  137.3349 C   0  0  0  0  0  0  0  0  0  0  0  0
  185.1487  157.4081  135.8192 O   0  0  0  0  0  0  0  0  0  0  0  0
  186.2725  160.3544  138.9242 C   0  0  0  0  0  0  0  0  0  0  0  0
  1  2  1  0
  2  3  1  1
  3  4  1  0
  4  5  1  0
  5  6  1  6
  6  7  1  0
  7  8  1  0
  8  9  1  0
  9 10  2  0
 10 11  1  0
 11 12  1  0
 12 13  2  0
 13 14  1  0
 14 15  2  0
 15 16  1  0
 16 17  1  0
 15 18  1  0
 18 19  2  0
  5 20  1  0
 20 21  2  0
 20 22  1  0
 22 23  1  0
 24 23  1  6
 24 25  1  0
 25 26  1  0
 26 27  1  6
 26 28  1  0
 28 29  1  6
 29 30  1  0
 30 31  2  0
 31 32  1  0
 32 33  1  0
 32 34  2  0
 34 35  1  0
 35 36  1  0
 34 37  1  0
 37 38  1  0
 37 39  2  0
 40 39  1  6
 40 41  1  0
 41 42  1  0
 24 43  1  0
 43 44  2  0
 44 45  1  0
 45 46  1  0
 46 47  1  0
 47 48  1  0
 48 49  2  0
 49 50  1  0
 49 51  1  0
 51 52  1  0
 52 53  1  0
 53 54  1  0
 53 55  2  0
 51 56  2  0
  1 25  1  1
 41 28  1  0
 56 43  1  0
 40  1  1  0
 48 44  1  0
 56  2  1  0
 10  5  1  0
 19 12  1  0
 39 30  1  0
 19  9  1  0
M  END
$$$$
