
     RDKit          3D

 56 65  0  0  0  0  0  0  0  0999 V2000
  129.5131  137.4544  133.8496 C   0  0  2  0  0  0  0  0  0  0  0  0
  130.2390  137.2750  132.5199 C   0  0  2  0  0  0  0  0  0  0  0  0
  131.4876  138.5762  132.2929 S   0  0  0  0  0  0  0  0  0  0  0  0
  131.1059  139.4330  130.7378 C   0  0  0  0  0  0  0  0  0  0  0  0
  131.5717  140.8449  130.8409 C   0  0  1  0  0  0  0  0  0  0  0  0
  133.0141  140.9029  130.9928 N   0  0  0  0  0  0  0  0  0  0  0  0
  133.7320  140.1886  129.9870 C   0  0  0  0  0  0  0  0  0  0  0  0
  133.3346  140.5517  128.5808 C   0  0  0  0  0  0  0  0  0  0  0  0
  132.1375  141.4100  128.5297 C   0  0  0  0  0  0  0  0  0  0  0  0
  131.2604  141.5861  129.5807 C   0  0  0  0  0  0  0  0  0  0  0  0
  130.2929  142.4285  129.1822 N   0  0  0  0  0  0  0  0  0  0  0  0
  130.5121  142.8039  127.9112 C   0  0  0  0  0  0  0  0  0  0  0  0
  129.8519  143.6362  127.0202 C   0  0  0  0  0  0  0  0  0  0  0  0
  130.3223  143.8478  125.7213 C   0  0  0  0  0  0  0  0  0  0  0  0
  131.4729  143.2217  125.2917 C   0  0  0  0  0  0  0  0  0  0  0  0
  132.0102  143.3743  124.0219 O   0  0  0  0  0  0  0  0  0  0  0  0
  133.4117  143.6332  123.9469 C   0  0  0  0  0  0  0  0  0  0  0  0
  132.1281  142.3940  126.1802 C   0  0  0  0  0  0  0  0  0  0  0  0
  131.6748  142.1767  127.4641 C   0  0  0  0  0  0  0  0  0  0  0  0
  130.9568  141.4995  132.0204 C   0  0  0  0  0  0  0  0  0  0  0  0
  131.4651  142.6301  132.3881 O   0  0  0  0  0  0  0  0  0  0  0  0
  129.9179  141.0488  132.7638 O   0  0  0  0  0  0  0  0  0  0  0  0
  128.6339  140.6602  132.4270 C   0  0  0  0  0  0  0  0  0  0  0  0
  128.2824  139.2659  132.9256 C   0  0  2  0  0  0  0  0  0  0  0  0
  129.1799  138.8260  133.9603 N   0  0  0  0  0  0  0  0  0  0  0  0
  128.6465  139.1968  135.2545 C   0  0  1  0  0  0  0  0  0  0  0  0
  127.4067  138.6303  135.4872 O   0  0  0  0  0  0  0  0  0  0  0  0
  129.6738  138.7341  136.2973 C   0  0  2  0  0  0  0  0  0  0  0  0
  130.9880  139.3242  135.9371 C   0  0  0  0  0  0  0  0  0  0  0  0
  132.0478  138.3476  135.5657 C   0  0  0  0  0  0  0  0  0  0  0  0
  133.3925  138.6606  135.6872 C   0  0  0  0  0  0  0  0  0  0  0  0
  134.3486  137.7355  135.3405 C   0  0  0  0  0  0  0  0  0  0  0  0
  135.8187  138.0612  135.4672 C   0  0  0  0  0  0  0  0  0  0  0  0
  133.9777  136.4934  134.8709 C   0  0  0  0  0  0  0  0  0  0  0  0
  134.9773  135.5951  134.5344 O   0  0  0  0  0  0  0  0  0  0  0  0
  135.0761  135.2042  133.1645 C   0  0  0  0  0  0  0  0  0  0  0  0
  132.6163  136.2050  134.7588 C   0  0  0  0  0  0  0  0  0  0  0  0
  132.2749  134.9478  134.2854 O   0  0  0  0  0  0  0  0  0  0  0  0
  131.6611  137.1189  135.1009 C   0  0  0  0  0  0  0  0  0  0  0  0
  130.2175  136.8511  135.0041 C   0  0  1  0  0  0  0  0  0  0  0  0
  129.6871  137.3128  136.2778 N   0  0  0  0  0  0  0  0  0  0  0  0
  128.4844  136.6755  136.6734 C   0  0  0  0  0  0  0  0  0  0  0  0
  128.2072  138.3685  131.7472 C   0  0  0  0  0  0  0  0  0  0  0  0
  127.1537  138.5113  130.8298 C   0  0  0  0  0  0  0  0  0  0  0  0
  126.0629  139.3619  130.7604 O   0  0  0  0  0  0  0  0  0  0  0  0
  125.1034  138.8866  129.8354 C   0  0  0  0  0  0  0  0  0  0  0  0
  125.9142  138.0807  129.0005 O   0  0  0  0  0  0  0  0  0  0  0  0
  127.0627  137.6963  129.7141 C   0  0  0  0  0  0  0  0  0  0  0  0
  128.0294  136.7390  129.5204 C   0  0  0  0  0  0  0  0  0  0  0  0
  127.9769  135.8473  128.3480 C   0  0  0  0  0  0  0  0  0  0  0  0
  129.0800  136.5920  130.4298 C   0  0  0  0  0  0  0  0  0  0  0  0
  130.0616  135.6395  130.2581 O   0  0  0  0  0  0  0  0  0  0  0  0
  131.3250  135.9535  129.7542 C   0  0  0  0  0  0  0  0  0  0  0  0
  131.4209  136.7972  128.5548 C   0  0  0  0  0  0  0  0  0  0  0  0
  132.3045  135.4849  130.3720 O   0  0  0  0  0  0  0  0  0  0  0  0
  129.1581  137.3991  131.5229 C   0  0  0  0  0  0  0  0  0  0  0  0
  1  2  1  0
  2  3  1  6
  3  4  1  0
  4  5  1  0
  5  6  1  1
  6  7  1  0
  7  8  1  0
  8  9  1  0
  9 10  2  0
 10 11  1  0
 11 12  1  0
 12 13  2  0
 13 14  1  0
 14 15  2  0
 15 16  1  0
 16 17  1  0
 15 18  1  0
 18 19  2  0
  5 20  1  0
 20 21  2  0
 20 22  1  0
 22 23  1  0
 24 23  1  6
 24 25  1  0
 25 26  1  0
 26 27  1  1
 26 28  1  0
 28 29  1  6
 29 30  1  0
 30 31  2  0
 31 32  1  0
 32 33  1  0
 32 34  2  0
 34 35  1  0
 35 36  1  0
 34 37  1  0
 37 38  1  0
 37 39  2  0
 40 39  1  6
 40 41  1  0
 41 42  1  0
 24 43  1  0
 43 44  2  0
 44 45  1  0
 45 46  1  0
 46 47  1  0
 47 48  1  0
 48 49  2  0
 49 50  1  0
 49 51  1  0
 51 52  1  0
 52 53  1  0
 53 54  1  0
 53 55  2  0
 51 56  2  0
  1 25  1  1
 41 28  1  0
 56 43  1  0
 40  1  1  0
 48 44  1  0
 56  2  1  0
 10  5  1  0
 19 12  1  0
 39 30  1  0
 19  9  1  0
M  END
$$$$
