
     RDKit          3D

 56 65  0  0  0  0  0  0  0  0999 V2000
  187.5666  160.6963  135.7027 C   0  0  2  0  0  0  0  0  0  0  0  0
  186.2021  161.3197  135.9801 C   0  0  2  0  0  0  0  0  0  0  0  0
  186.3702  162.7694  137.0635 S   0  0  0  0  0  0  0  0  0  0  0  0
  185.3355  162.4791  138.5275 C   0  0  0  0  0  0  0  0  0  0  0  0
  185.9364  163.1936  139.6892 C   0  0  1  0  0  0  0  0  0  0  0  0
  185.9355  164.6284  139.4695 N   0  0  0  0  0  0  0  0  0  0  0  0
  184.6552  165.1626  139.1337 C   0  0  0  0  0  0  0  0  0  0  0  0
  183.5623  164.7752  140.0943 C   0  0  0  0  0  0  0  0  0  0  0  0
  183.9905  163.7495  141.0623 C   0  0  0  0  0  0  0  0  0  0  0  0
  185.1167  162.9648  140.9181 C   0  0  0  0  0  0  0  0  0  0  0  0
  185.1960  162.1468  141.9806 N   0  0  0  0  0  0  0  0  0  0  0  0
  184.1619  162.3736  142.8073 C   0  0  0  0  0  0  0  0  0  0  0  0
  183.7539  161.8344  144.0178 C   0  0  0  0  0  0  0  0  0  0  0  0
  182.6011  162.2776  144.6718 C   0  0  0  0  0  0  0  0  0  0  0  0
  181.8322  163.2781  144.1166 C   0  0  0  0  0  0  0  0  0  0  0  0
  180.6751  163.7779  144.6958 O   0  0  0  0  0  0  0  0  0  0  0  0
  179.4933  163.7443  143.8965 C   0  0  0  0  0  0  0  0  0  0  0  0
  182.2402  163.8132  142.9120 C   0  0  0  0  0  0  0  0  0  0  0  0
  183.3752  163.3850  142.2565 C   0  0  0  0  0  0  0  0  0  0  0  0
  187.3397  162.7576  139.8852 C   0  0  0  0  0  0  0  0  0  0  0  0
  188.0655  163.4752  140.6790 O   0  0  0  0  0  0  0  0  0  0  0  0
  187.9555  161.6885  139.3258 O   0  0  0  0  0  0  0  0  0  0  0  0
  187.6391  160.3423  139.3004 C   0  0  0  0  0  0  0  0  0  0  0  0
  187.5806  159.7696  137.8915 C   0  0  2  0  0  0  0  0  0  0  0  0
  188.2483  160.6185  136.9412 N   0  0  0  0  0  0  0  0  0  0  0  0
  189.6346  160.2171  136.8228 C   0  0  1  0  0  0  0  0  0  0  0  0
  189.7617  158.9075  136.3974 O   0  0  0  0  0  0  0  0  0  0  0  0
  190.2860  161.1899  135.8296 C   0  0  2  0  0  0  0  0  0  0  0  0
  190.0437  162.5713  136.3176 C   0  0  0  0  0  0  0  0  0  0  0  0
  189.1991  163.4225  135.4361 C   0  0  0  0  0  0  0  0  0  0  0  0
  189.2825  164.8054  135.4727 C   0  0  0  0  0  0  0  0  0  0  0  0
  188.4926  165.5649  134.6426 C   0  0  0  0  0  0  0  0  0  0  0  0
  188.5717  167.0737  134.6703 C   0  0  0  0  0  0  0  0  0  0  0  0
  187.6143  164.9580  133.7700 C   0  0  0  0  0  0  0  0  0  0  0  0
  186.8393  165.7655  132.9534 O   0  0  0  0  0  0  0  0  0  0  0  0
  187.0203  165.6405  131.5425 C   0  0  0  0  0  0  0  0  0  0  0  0
  187.5510  163.5634  133.7540 C   0  0  0  0  0  0  0  0  0  0  0  0
  186.6601  162.9827  132.8652 O   0  0  0  0  0  0  0  0  0  0  0  0
  188.3323  162.8026  134.5760 C   0  0  0  0  0  0  0  0  0  0  0  0
  188.3004  161.3315  134.5843 C   0  0  1  0  0  0  0  0  0  0  0  0
  189.7037  160.9484  134.5555 N   0  0  0  0  0  0  0  0  0  0  0  0
  189.9471  159.6697  133.9944 C   0  0  0  0  0  0  0  0  0  0  0  0
  186.1598  159.4840  137.5768 C   0  0  0  0  0  0  0  0  0  0  0  0
  185.4989  158.4337  138.2341 C   0  0  0  0  0  0  0  0  0  0  0  0
  185.8953  157.5103  139.1872 O   0  0  0  0  0  0  0  0  0  0  0  0
  184.9720  156.4419  139.2774 C   0  0  0  0  0  0  0  0  0  0  0  0
  183.8008  157.0585  138.7755 O   0  0  0  0  0  0  0  0  0  0  0  0
  184.1695  158.1500  137.9702 C   0  0  0  0  0  0  0  0  0  0  0  0
  183.5051  158.9209  137.0468 C   0  0  0  0  0  0  0  0  0  0  0  0
  182.0893  158.6588  136.7314 C   0  0  0  0  0  0  0  0  0  0  0  0
  184.1574  159.9671  136.3893 C   0  0  0  0  0  0  0  0  0  0  0  0
  183.5131  160.7544  135.4591 O   0  0  0  0  0  0  0  0  0  0  0  0
  182.9937  162.0105  135.7772 C   0  0  0  0  0  0  0  0  0  0  0  0
  182.8156  162.3671  137.1917 C   0  0  0  0  0  0  0  0  0  0  0  0
  182.7113  162.7574  134.8163 O   0  0  0  0  0  0  0  0  0  0  0  0
  185.4644  160.2358  136.6573 C   0  0  0  0  0  0  0  0  0  0  0  0
  1  2  1  0
  2  3  1  1
  3  4  1  0
  4  5  1  0
  5  6  1  6
  6  7  1  0
  7  8  1  0
  8  9  1  0
  9 10  2  0
 10 11  1  0
 11 12  1  0
 12 13  2  0
 13 14  1  0
 14 15  2  0
 15 16  1  0
 16 17  1  0
 15 18  1  0
 18 19  2  0
  5 20  1  0
 20 21  2  0
 20 22  1  0
 22 23  1  0
 24 23  1  1
 24 25  1  0
 25 26  1  0
 26 27  1  6
 26 28  1  0
 28 29  1  1
 29 30  1  0
 30 31  2  0
 31 32  1  0
 32 33  1  0
 32 34  2  0
 34 35  1  0
 35 36  1  0
 34 37  1  0
 37 38  1  0
 37 39  2  0
 40 39  1  1
 40 41  1  0
 41 42  1  0
 24 43  1  0
 43 44  2  0
 44 45  1  0
 45 46  1  0
 46 47  1  0
 47 48  1  0
 48 49  2  0
 49 50  1  0
 49 51  1  0
 51 52  1  0
 52 53  1  0
 53 54  1  0
 53 55  2  0
 51 56  2  0
  1 25  1  1
 41 28  1  0
 56 43  1  0
 40  1  1  0
 48 44  1  0
 56  2  1  0
 10  5  1  0
 19 12  1  0
 39 30  1  0
 19  9  1  0
M  END
$$$$
