
     RDKit          3D

 56 65  0  0  0  0  0  0  0  0999 V2000
  169.3668  147.9098  127.6717 C   0  0  2  0  0  0  0  0  0  0  0  0
  167.9891  147.4820  128.1681 C   0  0  2  0  0  0  0  0  0  0  0  0
  166.8526  147.2409  126.7702 S   0  0  0  0  0  0  0  0  0  0  0  0
  165.4225  148.3282  127.0362 C   0  0  0  0  0  0  0  0  0  0  0  0
  164.8622  148.7170  125.7112 C   0  0  1  0  0  0  0  0  0  0  0  0
  164.3616  147.5543  125.0011 N   0  0  0  0  0  0  0  0  0  0  0  0
  163.4326  146.7724  125.7514 C   0  0  0  0  0  0  0  0  0  0  0  0
  162.2928  147.5688  126.3293 C   0  0  0  0  0  0  0  0  0  0  0  0
  162.4828  149.0234  126.1861 C   0  0  0  0  0  0  0  0  0  0  0  0
  163.6892  149.6258  125.8915 C   0  0  0  0  0  0  0  0  0  0  0  0
  163.4924  150.9535  125.8379 N   0  0  0  0  0  0  0  0  0  0  0  0
  162.2022  151.2323  126.0872 C   0  0  0  0  0  0  0  0  0  0  0  0
  161.4608  152.4018  126.1583 C   0  0  0  0  0  0  0  0  0  0  0  0
  160.0929  152.3920  126.4443 C   0  0  0  0  0  0  0  0  0  0  0  0
  159.4410  151.1975  126.6654 C   0  0  0  0  0  0  0  0  0  0  0  0
  158.0882  151.0951  126.9548 O   0  0  0  0  0  0  0  0  0  0  0  0
  157.5742  149.7787  127.1537 C   0  0  0  0  0  0  0  0  0  0  0  0
  160.1809  150.0350  126.5940 C   0  0  0  0  0  0  0  0  0  0  0  0
  161.5307  150.0309  126.3129 C   0  0  0  0  0  0  0  0  0  0  0  0
  165.9138  149.3486  124.8787 C   0  0  0  0  0  0  0  0  0  0  0  0
  165.6496  149.4953  123.6215 O   0  0  0  0  0  0  0  0  0  0  0  0
  167.1280  149.7929  125.2833 O   0  0  0  0  0  0  0  0  0  0  0  0
  167.5102  150.6797  126.2734 C   0  0  0  0  0  0  0  0  0  0  0  0
  168.5267  150.0914  127.2414 C   0  0  2  0  0  0  0  0  0  0  0  0
  169.1641  148.9204  126.7010 N   0  0  0  0  0  0  0  0  0  0  0  0
  170.3689  149.3060  125.9963 C   0  0  1  0  0  0  0  0  0  0  0  0
  171.2722  149.9474  126.8239 O   0  0  0  0  0  0  0  0  0  0  0  0
  170.9656  148.0158  125.4162 C   0  0  2  0  0  0  0  0  0  0  0  0
  169.9153  147.3522  124.6028 C   0  0  0  0  0  0  0  0  0  0  0  0
  169.4630  146.0249  125.1015 C   0  0  0  0  0  0  0  0  0  0  0  0
  168.8966  145.0888  124.2508 C   0  0  0  0  0  0  0  0  0  0  0  0
  168.4928  143.8692  124.7402 C   0  0  0  0  0  0  0  0  0  0  0  0
  167.8736  142.8378  123.8257 C   0  0  0  0  0  0  0  0  0  0  0  0
  168.6481  143.5693  126.0770 C   0  0  0  0  0  0  0  0  0  0  0  0
  168.2260  142.3275  126.5230 O   0  0  0  0  0  0  0  0  0  0  0  0
  169.2316  141.3949  126.9205 C   0  0  0  0  0  0  0  0  0  0  0  0
  169.2217  144.5308  126.9111 C   0  0  0  0  0  0  0  0  0  0  0  0
  169.3660  144.1994  128.2492 O   0  0  0  0  0  0  0  0  0  0  0  0
  169.6248  145.7444  126.4321 C   0  0  0  0  0  0  0  0  0  0  0  0
  170.2396  146.7807  127.2766 C   0  0  1  0  0  0  0  0  0  0  0  0
  171.3969  147.2184  126.5111 N   0  0  0  0  0  0  0  0  0  0  0  0
  172.4451  147.7588  127.2975 C   0  0  0  0  0  0  0  0  0  0  0  0
  167.8457  149.8821  128.5422 C   0  0  0  0  0  0  0  0  0  0  0  0
  167.4687  150.9911  129.3166 C   0  0  0  0  0  0  0  0  0  0  0  0
  167.6005  152.3591  129.1448 O   0  0  0  0  0  0  0  0  0  0  0  0
  167.3743  153.0498  130.3589 C   0  0  0  0  0  0  0  0  0  0  0  0
  166.5802  152.1088  131.0572 O   0  0  0  0  0  0  0  0  0  0  0  0
  166.8213  150.8283  130.5298 C   0  0  0  0  0  0  0  0  0  0  0  0
  166.5530  149.5524  130.9641 C   0  0  0  0  0  0  0  0  0  0  0  0
  165.8657  149.3268  132.2483 C   0  0  0  0  0  0  0  0  0  0  0  0
  166.9259  148.4449  130.1980 C   0  0  0  0  0  0  0  0  0  0  0  0
  166.6684  147.1554  130.6117 O   0  0  0  0  0  0  0  0  0  0  0  0
  167.5471  146.4463  131.4324 C   0  0  0  0  0  0  0  0  0  0  0  0
  167.8163  145.0335  131.1304 C   0  0  0  0  0  0  0  0  0  0  0  0
  168.0526  147.0768  132.3852 O   0  0  0  0  0  0  0  0  0  0  0  0
  167.5620  148.6183  129.0073 C   0  0  0  0  0  0  0  0  0  0  0  0
  1  2  1  0
  2  3  1  6
  3  4  1  0
  4  5  1  0
  5  6  1  6
  6  7  1  0
  7  8  1  0
  8  9  1  0
  9 10  2  0
 10 11  1  0
 11 12  1  0
 12 13  2  0
 13 14  1  0
 14 15  2  0
 15 16  1  0
 16 17  1  0
 15 18  1  0
 18 19  2  0
  5 20  1  0
 20 21  2  0
 20 22  1  0
 22 23  1  0
 24 23  1  6
 24 25  1  0
 25 26  1  0
 26 27  1  1
 26 28  1  0
 28 29  1  1
 29 30  1  0
 30 31  2  0
 31 32  1  0
 32 33  1  0
 32 34  2  0
 34 35  1  0
 35 36  1  0
 34 37  1  0
 37 38  1  0
 37 39  2  0
 40 39  1  6
 40 41  1  0
 41 42  1  0
 24 43  1  0
 43 44  2  0
 44 45  1  0
 45 46  1  0
 46 47  1  0
 47 48  1  0
 48 49  2  0
 49 50  1  0
 49 51  1  0
 51 52  1  0
 52 53  1  0
 53 54  1  0
 53 55  2  0
 51 56  2  0
  1 25  1  6
 41 28  1  0
 56 43  1  0
 40  1  1  0
 48 44  1  0
 56  2  1  0
 10  5  1  0
 19 12  1  0
 39 30  1  0
 19  9  1  0
M  END
$$$$
