
     RDKit          3D

 56 65  0  0  0  0  0  0  0  0999 V2000
  190.7377  159.5276  123.6485 C   0  0  2  0  0  0  0  0  0  0  0  0
  191.4922  160.3703  122.6247 C   0  0  2  0  0  0  0  0  0  0  0  0
  190.3624  160.9692  121.3330 S   0  0  0  0  0  0  0  0  0  0  0  0
  191.0067  160.3940  119.7354 C   0  0  0  0  0  0  0  0  0  0  0  0
  189.8651  160.2117  118.7951 C   0  0  1  0  0  0  0  0  0  0  0  0
  189.2039  161.4773  118.5342 N   0  0  0  0  0  0  0  0  0  0  0  0
  190.0837  162.5107  118.0926 C   0  0  0  0  0  0  0  0  0  0  0  0
  190.9488  162.1168  116.9247 C   0  0  0  0  0  0  0  0  0  0  0  0
  190.8666  160.6785  116.6133 C   0  0  0  0  0  0  0  0  0  0  0  0
  190.3578  159.7241  117.4708 C   0  0  0  0  0  0  0  0  0  0  0  0
  190.4386  158.5291  116.8626 N   0  0  0  0  0  0  0  0  0  0  0  0
  190.9812  158.6754  115.6426 C   0  0  0  0  0  0  0  0  0  0  0  0
  191.2913  157.8035  114.6102 C   0  0  0  0  0  0  0  0  0  0  0  0
  191.8671  158.2481  113.4168 C   0  0  0  0  0  0  0  0  0  0  0  0
  192.1434  159.5869  113.2388 C   0  0  0  0  0  0  0  0  0  0  0  0
  192.7129  160.1143  112.0892 O   0  0  0  0  0  0  0  0  0  0  0  0
  194.0967  160.4563  112.1593 C   0  0  0  0  0  0  0  0  0  0  0  0
  191.8338  160.4527  114.2677 C   0  0  0  0  0  0  0  0  0  0  0  0
  191.2658  160.0271  115.4497 C   0  0  0  0  0  0  0  0  0  0  0  0
  188.8683  159.2819  119.3779 C   0  0  0  0  0  0  0  0  0  0  0  0
  187.7117  159.2341  118.8017 O   0  0  0  0  0  0  0  0  0  0  0  0
  189.0278  158.4710  120.4513 O   0  0  0  0  0  0  0  0  0  0  0  0
  189.9687  157.5032  120.7530 C   0  0  0  0  0  0  0  0  0  0  0  0
  190.6497  157.7309  122.0948 C   0  0  2  0  0  0  0  0  0  0  0  0
  189.9053  158.6400  122.9249 N   0  0  0  0  0  0  0  0  0  0  0  0
  188.9829  157.8937  123.7550 C   0  0  1  0  0  0  0  0  0  0  0  0
  189.6354  156.9929  124.5766 O   0  0  0  0  0  0  0  0  0  0  0  0
  188.2006  158.9289  124.5756 C   0  0  2  0  0  0  0  0  0  0  0  0
  187.5925  159.8976  123.6285 C   0  0  0  0  0  0  0  0  0  0  0  0
  188.0866  161.2971  123.7393 C   0  0  0  0  0  0  0  0  0  0  0  0
  187.3182  162.3696  123.3150 C   0  0  0  0  0  0  0  0  0  0  0  0
  187.7999  163.6517  123.4348 C   0  0  0  0  0  0  0  0  0  0  0  0
  186.9745  164.8317  122.9770 C   0  0  0  0  0  0  0  0  0  0  0  0
  189.0473  163.8790  123.9765 C   0  0  0  0  0  0  0  0  0  0  0  0
  189.4893  165.1882  124.0765 O   0  0  0  0  0  0  0  0  0  0  0  0
  190.8425  165.3962  124.4821 C   0  0  0  0  0  0  0  0  0  0  0  0
  189.7997  162.7802  124.3958 C   0  0  0  0  0  0  0  0  0  0  0  0
  191.0485  163.0408  124.9375 O   0  0  0  0  0  0  0  0  0  0  0  0
  189.3278  161.5040  124.2795 C   0  0  0  0  0  0  0  0  0  0  0  0
  190.0863  160.3210  124.7158 C   0  0  1  0  0  0  0  0  0  0  0  0
  189.1186  159.5410  125.4719 N   0  0  0  0  0  0  0  0  0  0  0  0
  189.6925  158.6898  126.4493 C   0  0  0  0  0  0  0  0  0  0  0  0
  192.0504  158.1396  121.8289 C   0  0  0  0  0  0  0  0  0  0  0  0
  192.9618  157.2048  121.3117 C   0  0  0  0  0  0  0  0  0  0  0  0
  192.8586  155.8673  120.9672 O   0  0  0  0  0  0  0  0  0  0  0  0
  194.1367  155.2784  120.8199 C   0  0  0  0  0  0  0  0  0  0  0  0
  194.9258  156.4199  120.5405 O   0  0  0  0  0  0  0  0  0  0  0  0
  194.2729  157.5593  121.0421 C   0  0  0  0  0  0  0  0  0  0  0  0
  194.6677  158.8516  121.2919 C   0  0  0  0  0  0  0  0  0  0  0  0
  196.0525  159.2778  121.0214 C   0  0  0  0  0  0  0  0  0  0  0  0
  193.7654  159.7862  121.8067 C   0  0  0  0  0  0  0  0  0  0  0  0
  194.1369  161.0882  122.0660 O   0  0  0  0  0  0  0  0  0  0  0  0
  193.6689  162.1621  121.3069 C   0  0  0  0  0  0  0  0  0  0  0  0
  193.9915  163.5295  121.7378 C   0  0  0  0  0  0  0  0  0  0  0  0
  192.9950  161.8779  120.2940 O   0  0  0  0  0  0  0  0  0  0  0  0
  192.4794  159.4253  122.0677 C   0  0  0  0  0  0  0  0  0  0  0  0
  1  2  1  0
  2  3  1  6
  3  4  1  0
  4  5  1  0
  5  6  1  6
  6  7  1  0
  7  8  1  0
  8  9  1  0
  9 10  2  0
 10 11  1  0
 11 12  1  0
 12 13  2  0
 13 14  1  0
 14 15  2  0
 15 16  1  0
 16 17  1  0
 15 18  1  0
 18 19  2  0
  5 20  1  0
 20 21  2  0
 20 22  1  0
 22 23  1  0
 24 23  1  6
 24 25  1  0
 25 26  1  0
 26 27  1  1
 26 28  1  0
 28 29  1  6
 29 30  1  0
 30 31  2  0
 31 32  1  0
 32 33  1  0
 32 34  2  0
 34 35  1  0
 35 36  1  0
 34 37  1  0
 37 38  1  0
 37 39  2  0
 40 39  1  6
 40 41  1  0
 41 42  1  0
 24 43  1  0
 43 44  2  0
 44 45  1  0
 45 46  1  0
 46 47  1  0
 47 48  1  0
 48 49  2  0
 49 50  1  0
 49 51  1  0
 51 52  1  0
 52 53  1  0
 53 54  1  0
 53 55  2  0
 51 56  2  0
  1 25  1  6
 41 28  1  0
 56 43  1  0
 40  1  1  0
 48 44  1  0
 56  2  1  0
 10  5  1  0
 19 12  1  0
 39 30  1  0
 19  9  1  0
M  END
$$$$
