
     RDKit          3D

 56 65  0  0  0  0  0  0  0  0999 V2000
  201.1571  130.5226  134.5161 C   0  0  2  0  0  0  0  0  0  0  0  0
  201.9190  131.5924  133.7398 C   0  0  2  0  0  0  0  0  0  0  0  0
  203.6547  131.1030  133.5132 S   0  0  0  0  0  0  0  0  0  0  0  0
  204.6888  132.4145  134.2266 C   0  0  0  0  0  0  0  0  0  0  0  0
  205.9620  131.8112  134.7122 C   0  0  1  0  0  0  0  0  0  0  0  0
  206.7211  131.2504  133.6093 N   0  0  0  0  0  0  0  0  0  0  0  0
  206.9524  132.1668  132.5397 C   0  0  0  0  0  0  0  0  0  0  0  0
  207.5495  133.4776  132.9787 C   0  0  0  0  0  0  0  0  0  0  0  0
  207.5731  133.6315  134.4444 C   0  0  0  0  0  0  0  0  0  0  0  0
  206.8341  132.8620  135.3200 C   0  0  0  0  0  0  0  0  0  0  0  0
  207.1017  133.2758  136.5696 N   0  0  0  0  0  0  0  0  0  0  0  0
  207.9870  134.2855  136.5345 C   0  0  0  0  0  0  0  0  0  0  0  0
  208.5998  135.0696  137.4999 C   0  0  0  0  0  0  0  0  0  0  0  0
  209.5071  136.0782  137.1644 C   0  0  0  0  0  0  0  0  0  0  0  0
  209.8169  136.3183  135.8427 C   0  0  0  0  0  0  0  0  0  0  0  0
  210.7046  137.2970  135.4204 O   0  0  0  0  0  0  0  0  0  0  0  0
  211.9359  136.8446  134.8583 C   0  0  0  0  0  0  0  0  0  0  0  0
  209.2058  135.5367  134.8838 C   0  0  0  0  0  0  0  0  0  0  0  0
  208.3091  134.5387  135.2013 C   0  0  0  0  0  0  0  0  0  0  0  0
  205.6747  130.7216  135.6756 C   0  0  0  0  0  0  0  0  0  0  0  0
  206.6580  129.9376  135.9762 O   0  0  0  0  0  0  0  0  0  0  0  0
  204.4945  130.4488  136.2821 O   0  0  0  0  0  0  0  0  0  0  0  0
  203.6421  131.2238  137.0473 C   0  0  0  0  0  0  0  0  0  0  0  0
  202.2136  131.2357  136.5224 C   0  0  2  0  0  0  0  0  0  0  0  0
  201.9687  130.1475  135.6138 N   0  0  0  0  0  0  0  0  0  0  0  0
  201.4678  129.0053  136.3495 C   0  0  1  0  0  0  0  0  0  0  0  0
  200.2876  129.2905  137.0115 O   0  0  0  0  0  0  0  0  0  0  0  0
  201.2721  127.8792  135.3246 C   0  0  2  0  0  0  0  0  0  0  0  0
  202.5587  127.6842  134.6090 C   0  0  0  0  0  0  0  0  0  0  0  0
  202.5336  127.9900  133.1527 C   0  0  0  0  0  0  0  0  0  0  0  0
  203.4439  127.4166  132.2789 C   0  0  0  0  0  0  0  0  0  0  0  0
  203.3926  127.7150  130.9379 C   0  0  0  0  0  0  0  0  0  0  0  0
  204.3777  127.0981  129.9723 C   0  0  0  0  0  0  0  0  0  0  0  0
  202.4379  128.5841  130.4539 C   0  0  0  0  0  0  0  0  0  0  0  0
  202.4262  128.8537  129.0950 O   0  0  0  0  0  0  0  0  0  0  0  0
  201.7605  127.9191  128.2450 C   0  0  0  0  0  0  0  0  0  0  0  0
  201.5335  129.1470  131.3564 C   0  0  0  0  0  0  0  0  0  0  0  0
  200.5849  130.0153  130.8397 O   0  0  0  0  0  0  0  0  0  0  0  0
  201.5787  128.8556  132.6898 C   0  0  0  0  0  0  0  0  0  0  0  0
  200.6399  129.4220  133.6712 C   0  0  1  0  0  0  0  0  0  0  0  0
  200.2168  128.2734  134.4577 N   0  0  0  0  0  0  0  0  0  0  0  0
  198.9411  128.4170  135.0585 C   0  0  0  0  0  0  0  0  0  0  0  0
  201.9476  132.5829  135.9622 C   0  0  0  0  0  0  0  0  0  0  0  0
  201.8404  133.6863  136.8242 C   0  0  0  0  0  0  0  0  0  0  0  0
  201.9222  133.8293  138.1993 O   0  0  0  0  0  0  0  0  0  0  0  0
  201.4031  135.0785  138.6142 C   0  0  0  0  0  0  0  0  0  0  0  0
  201.5499  135.8358  137.4272 O   0  0  0  0  0  0  0  0  0  0  0  0
  201.6041  134.9582  136.3304 C   0  0  0  0  0  0  0  0  0  0  0  0
  201.4758  135.1211  134.9719 C   0  0  0  0  0  0  0  0  0  0  0  0
  201.2240  136.4550  134.3975 C   0  0  0  0  0  0  0  0  0  0  0  0
  201.5813  134.0270  134.1092 C   0  0  0  0  0  0  0  0  0  0  0  0
  201.4563  134.1643  132.7433 O   0  0  0  0  0  0  0  0  0  0  0  0
  200.2264  134.0529  132.0923 C   0  0  0  0  0  0  0  0  0  0  0  0
  199.9959  132.9065  131.2023 C   0  0  0  0  0  0  0  0  0  0  0  0
  199.3920  134.9550  132.3177 O   0  0  0  0  0  0  0  0  0  0  0  0
  201.8135  132.7818  134.6070 C   0  0  0  0  0  0  0  0  0  0  0  0
  1  2  1  0
  2  3  1  1
  3  4  1  0
  4  5  1  0
  5  6  1  6
  6  7  1  0
  7  8  1  0
  8  9  1  0
  9 10  2  0
 10 11  1  0
 11 12  1  0
 12 13  2  0
 13 14  1  0
 14 15  2  0
 15 16  1  0
 16 17  1  0
 15 18  1  0
 18 19  2  0
  5 20  1  0
 20 21  2  0
 20 22  1  0
 22 23  1  0
 24 23  1  6
 24 25  1  0
 25 26  1  0
 26 27  1  6
 26 28  1  0
 28 29  1  6
 29 30  1  0
 30 31  2  0
 31 32  1  0
 32 33  1  0
 32 34  2  0
 34 35  1  0
 35 36  1  0
 34 37  1  0
 37 38  1  0
 37 39  2  0
 40 39  1  6
 40 41  1  0
 41 42  1  0
 24 43  1  0
 43 44  2  0
 44 45  1  0
 45 46  1  0
 46 47  1  0
 47 48  1  0
 48 49  2  0
 49 50  1  0
 49 51  1  0
 51 52  1  0
 52 53  1  0
 53 54  1  0
 53 55  2  0
 51 56  2  0
  1 25  1  1
 41 28  1  0
 56 43  1  0
 40  1  1  0
 48 44  1  0
 56  2  1  0
 10  5  1  0
 19 12  1  0
 39 30  1  0
 19  9  1  0
M  END
$$$$
