
     RDKit          3D

 56 65  0  0  0  0  0  0  0  0999 V2000
  149.4006  174.7897  155.3508 C   0  0  2  0  0  0  0  0  0  0  0  0
  148.3818  173.7539  154.8854 C   0  0  2  0  0  0  0  0  0  0  0  0
  146.9640  174.5652  154.0885 S   0  0  0  0  0  0  0  0  0  0  0  0
  145.4689  174.0532  154.9834 C   0  0  0  0  0  0  0  0  0  0  0  0
  144.4561  175.1423  154.8884 C   0  0  1  0  0  0  0  0  0  0  0  0
  144.0522  175.3530  153.5102 N   0  0  0  0  0  0  0  0  0  0  0  0
  143.6084  174.1686  152.8488 C   0  0  0  0  0  0  0  0  0  0  0  0
  142.5450  173.4128  153.6007 C   0  0  0  0  0  0  0  0  0  0  0  0
  142.3332  173.9305  154.9643 C   0  0  0  0  0  0  0  0  0  0  0  0
  143.2143  174.7604  155.6276 C   0  0  0  0  0  0  0  0  0  0  0  0
  142.7029  175.0310  156.8399 N   0  0  0  0  0  0  0  0  0  0  0  0
  141.5226  174.4062  156.9853 C   0  0  0  0  0  0  0  0  0  0  0  0
  140.5843  174.3347  158.0035 C   0  0  0  0  0  0  0  0  0  0  0  0
  139.4116  173.5854  157.8747 C   0  0  0  0  0  0  0  0  0  0  0  0
  139.1595  172.8895  156.7116 C   0  0  0  0  0  0  0  0  0  0  0  0
  138.0238  172.1222  156.4985 O   0  0  0  0  0  0  0  0  0  0  0  0
  137.8018  171.6643  155.1652 C   0  0  0  0  0  0  0  0  0  0  0  0
  140.0948  172.9623  155.6998 C   0  0  0  0  0  0  0  0  0  0  0  0
  141.2555  173.6977  155.8140 C   0  0  0  0  0  0  0  0  0  0  0  0
  145.0235  176.4120  155.4022 C   0  0  0  0  0  0  0  0  0  0  0  0
  144.3618  177.4917  155.1411 O   0  0  0  0  0  0  0  0  0  0  0  0
  146.1622  176.5750  156.1177 O   0  0  0  0  0  0  0  0  0  0  0  0
  146.6075  176.0071  157.2976 C   0  0  0  0  0  0  0  0  0  0  0  0
  147.9793  175.3610  157.1684 C   0  0  2  0  0  0  0  0  0  0  0  0
  148.6791  175.8213  155.9987 N   0  0  0  0  0  0  0  0  0  0  0  0
  149.4849  176.9754  156.3389 C   0  0  1  0  0  0  0  0  0  0  0  0
  150.4192  176.6868  157.3167 O   0  0  0  0  0  0  0  0  0  0  0  0
  150.1631  177.4310  155.0391 C   0  0  2  0  0  0  0  0  0  0  0  0
  149.1027  177.6493  154.0227 C   0  0  0  0  0  0  0  0  0  0  0  0
  149.1508  176.7433  152.8430 C   0  0  0  0  0  0  0  0  0  0  0  0
  148.5898  177.1081  151.6293 C   0  0  0  0  0  0  0  0  0  0  0  0
  148.6543  176.2515  150.5560 C   0  0  0  0  0  0  0  0  0  0  0  0
  148.0477  176.6344  149.2260 C   0  0  0  0  0  0  0  0  0  0  0  0
  149.2760  175.0269  150.6787 C   0  0  0  0  0  0  0  0  0  0  0  0
  149.3156  174.1983  149.5692 O   0  0  0  0  0  0  0  0  0  0  0  0
  149.9257  172.9169  149.7270 C   0  0  0  0  0  0  0  0  0  0  0  0
  149.8326  174.6853  151.9128 C   0  0  0  0  0  0  0  0  0  0  0  0
  150.4520  173.4488  152.0046 O   0  0  0  0  0  0  0  0  0  0  0  0
  149.7719  175.5309  152.9833 C   0  0  0  0  0  0  0  0  0  0  0  0
  150.3521  175.2112  154.2972 C   0  0  1  0  0  0  0  0  0  0  0  0
  151.0831  176.4150  154.6621 N   0  0  0  0  0  0  0  0  0  0  0  0
  152.1624  176.1933  155.5539 C   0  0  0  0  0  0  0  0  0  0  0  0
  147.7970  173.8911  157.2434 C   0  0  0  0  0  0  0  0  0  0  0  0
  147.4235  173.2974  158.4599 C   0  0  0  0  0  0  0  0  0  0  0  0
  147.1698  173.8013  159.7248 O   0  0  0  0  0  0  0  0  0  0  0  0
  147.1682  172.7701  160.6938 C   0  0  0  0  0  0  0  0  0  0  0  0
  146.8705  171.6460  159.8866 O   0  0  0  0  0  0  0  0  0  0  0  0
  147.2344  171.9292  158.5587 C   0  0  0  0  0  0  0  0  0  0  0  0
  147.4206  171.1586  157.4362 C   0  0  0  0  0  0  0  0  0  0  0  0
  147.2313  169.6978  157.4902 C   0  0  0  0  0  0  0  0  0  0  0  0
  147.7925  171.7435  156.2230 C   0  0  0  0  0  0  0  0  0  0  0  0
  147.9854  170.9924  155.0833 O   0  0  0  0  0  0  0  0  0  0  0  0
  146.9642  170.7636  154.1596 C   0  0  0  0  0  0  0  0  0  0  0  0
  147.3224  170.4232  152.7756 C   0  0  0  0  0  0  0  0  0  0  0  0
  145.7939  170.8669  154.5844 O   0  0  0  0  0  0  0  0  0  0  0  0
  147.9755  173.0895  156.1389 C   0  0  0  0  0  0  0  0  0  0  0  0
  1  2  1  0
  2  3  1  1
  3  4  1  0
  4  5  1  0
  5  6  1  6
  6  7  1  0
  7  8  1  0
  8  9  1  0
  9 10  2  0
 10 11  1  0
 11 12  1  0
 12 13  2  0
 13 14  1  0
 14 15  2  0
 15 16  1  0
 16 17  1  0
 15 18  1  0
 18 19  2  0
  5 20  1  0
 20 21  2  0
 20 22  1  0
 22 23  1  0
 24 23  1  6
 24 25  1  0
 25 26  1  0
 26 27  1  1
 26 28  1  0
 28 29  1  6
 29 30  1  0
 30 31  2  0
 31 32  1  0
 32 33  1  0
 32 34  2  0
 34 35  1  0
 35 36  1  0
 34 37  1  0
 37 38  1  0
 37 39  2  0
 40 39  1  6
 40 41  1  0
 41 42  1  0
 24 43  1  0
 43 44  2  0
 44 45  1  0
 45 46  1  0
 46 47  1  0
 47 48  1  0
 48 49  2  0
 49 50  1  0
 49 51  1  0
 51 52  1  0
 52 53  1  0
 53 54  1  0
 53 55  2  0
 51 56  2  0
  1 25  1  6
 41 28  1  0
 56 43  1  0
 40  1  1  0
 48 44  1  0
 56  2  1  0
 10  5  1  0
 19 12  1  0
 39 30  1  0
 19  9  1  0
M  END
$$$$
