
     RDKit          3D

 60 67  0  0  0  0  0  0  0  0999 V2000
  174.5337  147.0830  127.4289 N   0  0  0  0  0  0  0  0  0  0  0  0
  175.5226  147.3542  128.4458 C   0  0  0  0  0  0  0  0  0  0  0  0
  175.1406  147.6962  129.5765 O   0  0  0  0  0  0  0  0  0  0  0  0
  176.9140  147.2028  128.0594 C   0  0  0  0  0  0  0  0  0  0  0  0
  177.8629  147.4381  128.9496 C   0  0  0  0  0  0  0  0  0  0  0  0
  177.2429  146.8158  126.7714 O   0  0  0  0  0  0  0  0  0  0  0  0
  176.2849  146.5573  125.7997 C   0  0  0  0  0  0  0  0  0  0  0  0
  176.6536  146.1751  124.5292 C   0  0  0  0  0  0  0  0  0  0  0  0
  175.7103  145.9192  123.5679 C   0  0  0  0  0  0  0  0  0  0  0  0
  176.0687  145.5328  122.2861 O   0  0  0  0  0  0  0  0  0  0  0  0
  175.1540  145.6131  121.2146 C   0  0  0  0  0  0  0  0  0  0  0  0
  174.4034  146.0600  123.9259 C   0  0  0  0  0  0  0  0  0  0  0  0
  173.9536  146.4403  125.1825 C   0  0  0  0  0  0  0  0  0  0  0  0
  172.5242  146.5405  125.4266 C   0  0  0  0  0  0  0  0  0  0  0  0
  171.7713  145.9336  124.5666 O   0  0  0  0  0  0  0  0  0  0  0  0
  171.8643  147.1724  126.4174 O   0  0  0  0  0  0  0  0  0  0  0  0
  171.2004  146.5592  127.4693 C   0  0  1  0  0  0  0  0  0  0  0  0
  172.0050  146.6263  128.8052 C   0  0  0  0  0  0  0  0  0  0  0  0
  171.2256  146.5278  129.9085 O   0  0  0  0  0  0  0  0  0  0  0  0
  171.0321  145.7856  130.9920 C   0  0  0  0  0  0  0  0  0  0  0  0
  170.3189  144.7177  131.0770 O   0  0  0  0  0  0  0  0  0  0  0  0
  171.6714  146.1602  132.2860 C   0  0  0  0  0  0  0  0  0  0  0  0
  170.7247  146.8484  133.2458 C   0  0  1  0  0  0  0  0  0  0  0  0
  169.5365  147.4900  132.5228 C   0  0  0  0  0  0  0  0  0  0  0  0
  168.4034  146.7834  132.1962 C   0  0  0  0  0  0  0  0  0  0  0  0
  167.3215  147.3682  131.4604 C   0  0  0  0  0  0  0  0  0  0  0  0
  166.2776  146.3666  131.3051 O   0  0  0  0  0  0  0  0  0  0  0  0
  167.3642  148.6560  131.0404 C   0  0  0  0  0  0  0  0  0  0  0  0
  166.3194  149.2375  130.2833 O   0  0  0  0  0  0  0  0  0  0  0  0
  166.1121  148.9039  128.8832 C   0  0  2  0  0  0  0  0  0  0  0  0
  167.2088  148.0226  128.4479 C   0  0  0  0  0  0  0  0  0  0  0  0
  168.2335  148.8787  128.0779 C   0  0  0  0  0  0  0  0  0  0  0  0
  169.5213  148.3928  127.7333 C   0  0  0  0  0  0  0  0  0  0  0  0
  169.7805  147.0479  127.7538 C   0  0  0  0  0  0  0  0  0  0  0  0
  168.7611  146.1883  128.1118 C   0  0  0  0  0  0  0  0  0  0  0  0
  167.4879  146.7237  128.4516 C   0  0  0  0  0  0  0  0  0  0  0  0
  167.7067  150.2400  128.0546 C   0  0  0  0  0  0  0  0  0  0  0  0
  167.8429  151.5269  128.0758 C   0  0  0  0  0  0  0  0  0  0  0  0
  166.5222  152.1814  128.0024 C   0  0  0  0  0  0  0  0  0  0  0  0
  165.5679  151.2322  127.9154 C   0  0  0  0  0  0  0  0  0  0  0  0
  166.2215  149.9822  127.9036 C   0  0  2  0  0  0  0  0  0  0  0  0
  166.0277  149.2990  126.6568 O   0  0  0  0  0  0  0  0  0  0  0  0
  165.2515  149.9767  125.7603 C   0  0  2  0  0  0  0  0  0  0  0  0
  164.0874  150.3394  126.4294 O   0  0  0  0  0  0  0  0  0  0  0  0
  163.0129  150.6718  125.6172 C   0  0  0  0  0  0  0  0  0  0  0  0
  163.3043  151.7592  124.6699 C   0  0  0  0  0  0  0  0  0  0  0  0
  161.9589  151.2270  126.5990 C   0  0  0  0  0  0  0  0  0  0  0  0
  162.4912  149.3843  125.0445 C   0  0  2  0  0  0  0  0  0  0  0  0
  163.6049  148.4180  124.8552 C   0  0  1  0  0  0  0  0  0  0  0  0
  163.4387  147.4558  123.8951 O   0  0  0  0  0  0  0  0  0  0  0  0
  164.9610  149.0520  124.6033 C   0  0  1  0  0  0  0  0  0  0  0  0
  165.0990  149.6250  123.3671 O   0  0  0  0  0  0  0  0  0  0  0  0
  161.7095  149.5371  123.8439 N   0  0  0  0  0  0  0  0  0  0  0  0
  160.3744  148.9934  123.9686 C   0  0  0  0  0  0  0  0  0  0  0  0
  162.3626  148.7017  122.8203 C   0  0  0  0  0  0  0  0  0  0  0  0
  168.4834  149.3575  131.3753 C   0  0  0  0  0  0  0  0  0  0  0  0
  168.8108  151.1403  131.1755 Cl  0  0  0  0  0  0  0  0  0  0  0  0
  169.5769  148.8038  132.1063 C   0  0  0  0  0  0  0  0  0  0  0  0
  170.3517  145.9276  134.3117 N   0  0  0  0  0  4  0  0  0  0  0  0
  174.9306  146.6939  126.1395 C   0  0  0  0  0  0  0  0  0  0  0  0
  1  2  1  0
  2  3  2  0
  2  4  1  0
  4  5  2  0
  4  6  1  0
  6  7  1  0
  7  8  2  0
  8  9  1  0
  9 10  1  0
 10 11  1  0
  9 12  2  0
 12 13  1  0
 13 14  1  0
 14 15  2  0
 14 16  1  0
 17 16  1  6
 17 18  1  0
 18 19  1  0
 19 20  1  0
 20 21  2  0
 20 22  1  0
 22 23  1  0
 23 24  1  0
 24 25  2  0
 25 26  1  0
 26 27  1  0
 26 28  2  0
 28 29  1  0
 30 29  1  1
 30 31  1  0
 31 32  2  0
 32 33  1  0
 33 34  2  0
 34 35  1  0
 35 36  2  0
 32 37  1  0
 37 38  2  0
 38 39  1  0
 39 40  2  0
 40 41  1  0
 41 42  1  6
 43 42  1  1
 43 44  1  0
 44 45  1  0
 45 46  1  0
 45 47  1  0
 45 48  1  0
 48 49  1  0
 49 50  1  6
 49 51  1  0
 51 52  1  6
 48 53  1  6
 53 54  1  0
 53 55  1  0
 28 56  1  0
 56 57  1  0
 56 58  2  0
 23 59  1  1
 13 60  2  0
 60  1  1  0
 60  7  1  0
 34 17  1  0
 41 37  1  0
 51 43  1  0
 58 24  1  0
 41 30  1  0
 36 31  1  0
M  CHG  1  59   1
M  END
$$$$
