
     RDKit          3D

 60 67  0  0  0  0  0  0  0  0999 V2000
  187.1526  161.9861  121.5492 N   0  0  0  0  0  0  0  0  0  0  0  0
  185.7420  161.8893  121.8429 C   0  0  0  0  0  0  0  0  0  0  0  0
  185.1844  162.8360  122.4212 O   0  0  0  0  0  0  0  0  0  0  0  0
  185.0722  160.6688  121.4310 C   0  0  0  0  0  0  0  0  0  0  0  0
  183.7805  160.5249  121.6742 C   0  0  0  0  0  0  0  0  0  0  0  0
  185.7797  159.6662  120.7900 O   0  0  0  0  0  0  0  0  0  0  0  0
  187.1366  159.7678  120.5117 C   0  0  0  0  0  0  0  0  0  0  0  0
  187.8042  158.7470  119.8726 C   0  0  0  0  0  0  0  0  0  0  0  0
  189.1436  158.8444  119.5966 C   0  0  0  0  0  0  0  0  0  0  0  0
  189.8266  157.8245  118.9530 O   0  0  0  0  0  0  0  0  0  0  0  0
  191.1362  157.4651  119.3360 C   0  0  0  0  0  0  0  0  0  0  0  0
  189.7763  159.9879  119.9812 C   0  0  0  0  0  0  0  0  0  0  0  0
  189.1739  161.0581  120.6278 C   0  0  0  0  0  0  0  0  0  0  0  0
  189.9725  162.2230  120.9714 C   0  0  0  0  0  0  0  0  0  0  0  0
  191.1410  162.2767  120.4177 O   0  0  0  0  0  0  0  0  0  0  0  0
  189.6768  163.2583  121.7820 O   0  0  0  0  0  0  0  0  0  0  0  0
  190.0686  163.3892  123.1059 C   0  0  1  0  0  0  0  0  0  0  0  0
  188.9910  164.1028  123.9811 C   0  0  0  0  0  0  0  0  0  0  0  0
  189.0796  163.7991  125.2981 O   0  0  0  0  0  0  0  0  0  0  0  0
  189.2622  164.3519  126.4911 C   0  0  0  0  0  0  0  0  0  0  0  0
  190.3893  164.6221  127.0507 O   0  0  0  0  0  0  0  0  0  0  0  0
  188.0914  164.7281  127.3344 C   0  0  0  0  0  0  0  0  0  0  0  0
  187.8018  163.7324  128.4371 C   0  0  1  0  0  0  0  0  0  0  0  0
  188.3768  162.3468  128.1283 C   0  0  0  0  0  0  0  0  0  0  0  0
  189.6787  162.0087  128.4124 C   0  0  0  0  0  0  0  0  0  0  0  0
  190.2333  160.7348  128.0614 C   0  0  0  0  0  0  0  0  0  0  0  0
  191.6131  160.6923  128.5213 O   0  0  0  0  0  0  0  0  0  0  0  0
  189.4982  159.7938  127.4203 C   0  0  0  0  0  0  0  0  0  0  0  0
  190.0414  158.5447  127.0361 O   0  0  0  0  0  0  0  0  0  0  0  0
  190.9662  158.4233  125.9205 C   0  0  2  0  0  0  0  0  0  0  0  0
  191.0830  159.7385  125.2682 C   0  0  0  0  0  0  0  0  0  0  0  0
  190.0287  159.7904  124.3707 C   0  0  0  0  0  0  0  0  0  0  0  0
  189.7226  160.9735  123.6497 C   0  0  0  0  0  0  0  0  0  0  0  0
  190.4772  162.1033  123.8240 C   0  0  0  0  0  0  0  0  0  0  0  0
  191.5356  162.0558  124.7093 C   0  0  0  0  0  0  0  0  0  0  0  0
  191.8010  160.8473  125.4107 C   0  0  0  0  0  0  0  0  0  0  0  0
  189.4260  158.4629  124.2954 C   0  0  0  0  0  0  0  0  0  0  0  0
  188.4549  157.6544  124.0153 C   0  0  0  0  0  0  0  0  0  0  0  0
  188.8362  156.2663  124.3406 C   0  0  0  0  0  0  0  0  0  0  0  0
  190.0981  156.2595  124.8169 C   0  0  0  0  0  0  0  0  0  0  0  0
  190.5623  157.5912  124.7897 C   0  0  2  0  0  0  0  0  0  0  0  0
  191.6554  157.7486  123.8736 O   0  0  0  0  0  0  0  0  0  0  0  0
  192.5392  156.7074  123.8704 C   0  0  2  0  0  0  0  0  0  0  0  0
  192.3406  156.0073  125.0557 O   0  0  0  0  0  0  0  0  0  0  0  0
  193.3820  155.1736  125.4365 C   0  0  0  0  0  0  0  0  0  0  0  0
  193.7394  154.1739  124.4177 C   0  0  0  0  0  0  0  0  0  0  0  0
  192.8110  154.3835  126.6333 C   0  0  0  0  0  0  0  0  0  0  0  0
  194.4833  156.0627  125.9411 C   0  0  2  0  0  0  0  0  0  0  0  0
  194.4766  157.3554  125.2071 C   0  0  1  0  0  0  0  0  0  0  0  0
  195.6619  158.0374  125.1354 O   0  0  0  0  0  0  0  0  0  0  0  0
  193.9335  157.2801  123.7916 C   0  0  1  0  0  0  0  0  0  0  0  0
  194.7593  156.6494  122.8995 O   0  0  0  0  0  0  0  0  0  0  0  0
  195.7901  155.4562  125.9388 N   0  0  0  0  0  0  0  0  0  0  0  0
  196.7137  156.1125  125.0387 C   0  0  0  0  0  0  0  0  0  0  0  0
  195.6138  154.1046  125.3784 C   0  0  0  0  0  0  0  0  0  0  0  0
  188.2049  160.1271  127.1500 C   0  0  0  0  0  0  0  0  0  0  0  0
  186.8692  159.0685  126.5012 Cl  0  0  0  0  0  0  0  0  0  0  0  0
  187.6237  161.3864  127.4863 C   0  0  0  0  0  0  0  0  0  0  0  0
  188.2223  164.2838  129.7187 N   0  0  0  0  0  4  0  0  0  0  0  0
  187.8148  160.9342  120.8961 C   0  0  0  0  0  0  0  0  0  0  0  0
  1  2  1  0
  2  3  2  0
  2  4  1  0
  4  5  2  0
  4  6  1  0
  6  7  1  0
  7  8  2  0
  8  9  1  0
  9 10  1  0
 10 11  1  0
  9 12  2  0
 12 13  1  0
 13 14  1  0
 14 15  2  0
 14 16  1  0
 17 16  1  6
 17 18  1  0
 18 19  1  0
 19 20  1  0
 20 21  2  0
 20 22  1  0
 22 23  1  0
 23 24  1  0
 24 25  2  0
 25 26  1  0
 26 27  1  0
 26 28  2  0
 28 29  1  0
 30 29  1  1
 30 31  1  0
 31 32  2  0
 32 33  1  0
 33 34  2  0
 34 35  1  0
 35 36  2  0
 32 37  1  0
 37 38  2  0
 38 39  1  0
 39 40  2  0
 40 41  1  0
 41 42  1  6
 43 42  1  1
 43 44  1  0
 44 45  1  0
 45 46  1  0
 45 47  1  0
 45 48  1  0
 48 49  1  0
 49 50  1  6
 49 51  1  0
 51 52  1  6
 48 53  1  6
 53 54  1  0
 53 55  1  0
 28 56  1  0
 56 57  1  0
 56 58  2  0
 23 59  1  1
 13 60  2  0
 60  1  1  0
 60  7  1  0
 34 17  1  0
 41 37  1  0
 51 43  1  0
 58 24  1  0
 41 30  1  0
 36 31  1  0
M  CHG  1  59   1
M  END
$$$$
