
     RDKit          3D

 60 67  0  0  0  0  0  0  0  0999 V2000
  113.8844  165.8641  137.9726 N   0  0  0  0  0  0  0  0  0  0  0  0
  113.5312  165.0782  136.8138 C   0  0  0  0  0  0  0  0  0  0  0  0
  112.8073  165.5873  135.9430 O   0  0  0  0  0  0  0  0  0  0  0  0
  114.0603  163.7274  136.7558 C   0  0  0  0  0  0  0  0  0  0  0  0
  113.7695  162.9617  135.7178 C   0  0  0  0  0  0  0  0  0  0  0  0
  114.8615  163.2467  137.7775 O   0  0  0  0  0  0  0  0  0  0  0  0
  115.1959  164.0099  138.8886 C   0  0  0  0  0  0  0  0  0  0  0  0
  115.9954  163.4942  139.8842 C   0  0  0  0  0  0  0  0  0  0  0  0
  116.3273  164.2449  140.9822 C   0  0  0  0  0  0  0  0  0  0  0  0
  117.1319  163.7377  141.9902 O   0  0  0  0  0  0  0  0  0  0  0  0
  118.3871  163.1600  141.7043 C   0  0  0  0  0  0  0  0  0  0  0  0
  115.8330  165.5131  141.0410 C   0  0  0  0  0  0  0  0  0  0  0  0
  115.0233  166.1026  140.0802 C   0  0  0  0  0  0  0  0  0  0  0  0
  114.5758  167.4725  140.2699 C   0  0  0  0  0  0  0  0  0  0  0  0
  115.3093  168.3780  139.7070 O   0  0  0  0  0  0  0  0  0  0  0  0
  113.5082  167.9415  140.9456 O   0  0  0  0  0  0  0  0  0  0  0  0
  113.4622  169.1230  141.6703 C   0  0  1  0  0  0  0  0  0  0  0  0
  112.0301  169.4436  142.2020 C   0  0  0  0  0  0  0  0  0  0  0  0
  112.0281  170.2454  143.2936 O   0  0  0  0  0  0  0  0  0  0  0  0
  111.5862  171.4179  143.7320 C   0  0  0  0  0  0  0  0  0  0  0  0
  112.1590  172.5610  143.5849 O   0  0  0  0  0  0  0  0  0  0  0  0
  110.3008  171.5058  144.4827 C   0  0  0  0  0  0  0  0  0  0  0  0
  110.4875  171.6239  145.9801 C   0  0  1  0  0  0  0  0  0  0  0  0
  111.8485  171.0887  146.4353 C   0  0  0  0  0  0  0  0  0  0  0  0
  112.9877  171.8581  146.4149 C   0  0  0  0  0  0  0  0  0  0  0  0
  114.2718  171.3352  146.7772 C   0  0  0  0  0  0  0  0  0  0  0  0
  115.2504  172.4067  146.6707 O   0  0  0  0  0  0  0  0  0  0  0  0
  114.4303  170.0434  147.1550 C   0  0  0  0  0  0  0  0  0  0  0  0
  115.6968  169.5032  147.4822 O   0  0  0  0  0  0  0  0  0  0  0  0
  116.6907  169.2110  146.4617 C   0  0  2  0  0  0  0  0  0  0  0  0
  116.0852  169.4511  145.1408 C   0  0  0  0  0  0  0  0  0  0  0  0
  115.4326  168.2707  144.8237 C   0  0  0  0  0  0  0  0  0  0  0  0
  114.6036  168.1635  143.6772 C   0  0  0  0  0  0  0  0  0  0  0  0
  114.4334  169.2380  142.8448 C   0  0  0  0  0  0  0  0  0  0  0  0
  115.0889  170.4145  143.1492 C   0  0  0  0  0  0  0  0  0  0  0  0
  115.9067  170.4735  144.3113 C   0  0  0  0  0  0  0  0  0  0  0  0
  115.8215  167.2564  145.7990 C   0  0  0  0  0  0  0  0  0  0  0  0
  115.6481  166.1385  146.4277 C   0  0  0  0  0  0  0  0  0  0  0  0
  116.7397  165.9234  147.3973 C   0  0  0  0  0  0  0  0  0  0  0  0
  117.6038  166.9561  147.3194 C   0  0  0  0  0  0  0  0  0  0  0  0
  117.1277  167.8246  146.3150 C   0  0  2  0  0  0  0  0  0  0  0  0
  118.0352  167.8938  145.2058 O   0  0  0  0  0  0  0  0  0  0  0  0
  119.2862  167.4154  145.4736 C   0  0  2  0  0  0  0  0  0  0  0  0
  119.3744  167.2703  146.8541 O   0  0  0  0  0  0  0  0  0  0  0  0
  120.6624  167.1870  147.3628 C   0  0  0  0  0  0  0  0  0  0  0  0
  121.4576  166.0957  146.7781 C   0  0  0  0  0  0  0  0  0  0  0  0
  120.4556  166.8209  148.8480 C   0  0  0  0  0  0  0  0  0  0  0  0
  121.2430  168.5713  147.2951 C   0  0  2  0  0  0  0  0  0  0  0  0
  120.6944  169.3013  146.1221 C   0  0  1  0  0  0  0  0  0  0  0  0
  121.4613  170.3090  145.6009 O   0  0  0  0  0  0  0  0  0  0  0  0
  120.2889  168.4178  144.9561 C   0  0  1  0  0  0  0  0  0  0  0  0
  121.3380  167.8708  144.2665 O   0  0  0  0  0  0  0  0  0  0  0  0
  122.6826  168.6182  147.3254 N   0  0  0  0  0  0  0  0  0  0  0  0
  123.2946  167.7734  146.3227 C   0  0  0  0  0  0  0  0  0  0  0  0
  123.0850  168.0264  148.6138 C   0  0  0  0  0  0  0  0  0  0  0  0
  113.2980  169.2859  147.1853 C   0  0  0  0  0  0  0  0  0  0  0  0
  113.0778  167.5945  147.8305 Cl  0  0  0  0  0  0  0  0  0  0  0  0
  112.0059  169.7770  146.8305 C   0  0  0  0  0  0  0  0  0  0  0  0
  110.2088  172.9902  146.4029 N   0  0  0  0  0  4  0  0  0  0  0  0
  114.7014  165.3198  138.9765 C   0  0  0  0  0  0  0  0  0  0  0  0
  1  2  1  0
  2  3  2  0
  2  4  1  0
  4  5  2  0
  4  6  1  0
  6  7  1  0
  7  8  2  0
  8  9  1  0
  9 10  1  0
 10 11  1  0
  9 12  2  0
 12 13  1  0
 13 14  1  0
 14 15  2  0
 14 16  1  0
 17 16  1  1
 17 18  1  0
 18 19  1  0
 19 20  1  0
 20 21  2  0
 20 22  1  0
 22 23  1  0
 23 24  1  0
 24 25  2  0
 25 26  1  0
 26 27  1  0
 26 28  2  0
 28 29  1  0
 30 29  1  1
 30 31  1  0
 31 32  2  0
 32 33  1  0
 33 34  2  0
 34 35  1  0
 35 36  2  0
 32 37  1  0
 37 38  2  0
 38 39  1  0
 39 40  2  0
 40 41  1  0
 41 42  1  6
 43 42  1  1
 43 44  1  0
 44 45  1  0
 45 46  1  0
 45 47  1  0
 45 48  1  0
 48 49  1  0
 49 50  1  6
 49 51  1  0
 51 52  1  1
 48 53  1  6
 53 54  1  0
 53 55  1  0
 28 56  1  0
 56 57  1  0
 56 58  2  0
 23 59  1  6
 13 60  2  0
 60  1  1  0
 60  7  1  0
 34 17  1  0
 41 37  1  0
 51 43  1  0
 58 24  1  0
 41 30  1  0
 36 31  1  0
M  CHG  1  59   1
M  END
$$$$
