
     RDKit          3D

 60 67  0  0  0  0  0  0  0  0999 V2000
  188.6298  157.0122  119.1096 N   0  0  0  0  0  0  0  0  0  0  0  0
  187.2309  156.7728  118.8427 C   0  0  0  0  0  0  0  0  0  0  0  0
  186.7915  156.9987  117.7037 O   0  0  0  0  0  0  0  0  0  0  0  0
  186.4314  156.2769  119.9485 C   0  0  0  0  0  0  0  0  0  0  0  0
  185.1440  156.0399  119.7621 C   0  0  0  0  0  0  0  0  0  0  0  0
  187.0121  156.0546  121.1854 O   0  0  0  0  0  0  0  0  0  0  0  0
  188.3587  156.2878  121.4332 C   0  0  0  0  0  0  0  0  0  0  0  0
  188.8978  156.0545  122.6786 C   0  0  0  0  0  0  0  0  0  0  0  0
  190.2266  156.2837  122.9262 C   0  0  0  0  0  0  0  0  0  0  0  0
  190.7813  156.0518  124.1749 O   0  0  0  0  0  0  0  0  0  0  0  0
  190.8489  157.0724  125.1469 C   0  0  0  0  0  0  0  0  0  0  0  0
  190.9807  156.7492  121.8915 C   0  0  0  0  0  0  0  0  0  0  0  0
  190.5115  157.0081  120.6113 C   0  0  0  0  0  0  0  0  0  0  0  0
  191.4351  157.4945  119.5996 C   0  0  0  0  0  0  0  0  0  0  0  0
  192.3663  156.6648  119.2546 O   0  0  0  0  0  0  0  0  0  0  0  0
  191.4660  158.6834  118.9655 O   0  0  0  0  0  0  0  0  0  0  0  0
  192.2769  159.7585  119.2971 C   0  0  1  0  0  0  0  0  0  0  0  0
  192.2465  160.8861  118.2182 C   0  0  0  0  0  0  0  0  0  0  0  0
  192.5724  162.1069  118.7061 O   0  0  0  0  0  0  0  0  0  0  0  0
  193.4488  163.0934  118.5614 C   0  0  0  0  0  0  0  0  0  0  0  0
  194.6078  163.1815  119.1139 O   0  0  0  0  0  0  0  0  0  0  0  0
  193.1339  164.2586  117.6859 C   0  0  0  0  0  0  0  0  0  0  0  0
  192.6927  165.4852  118.4552 C   0  0  1  0  0  0  0  0  0  0  0  0
  192.1460  165.1305  119.8413 C   0  0  0  0  0  0  0  0  0  0  0  0
  192.9622  164.9609  120.9345 C   0  0  0  0  0  0  0  0  0  0  0  0
  192.4553  164.5632  122.2145 C   0  0  0  0  0  0  0  0  0  0  0  0
  193.5684  164.4992  123.1495 O   0  0  0  0  0  0  0  0  0  0  0  0
  191.1356  164.3258  122.4119 C   0  0  0  0  0  0  0  0  0  0  0  0
  190.6245  163.8990  123.6607 O   0  0  0  0  0  0  0  0  0  0  0  0
  190.8277  162.5440  124.1476 C   0  0  2  0  0  0  0  0  0  0  0  0
  191.4957  161.7654  123.0909 C   0  0  0  0  0  0  0  0  0  0  0  0
  190.4707  161.3055  122.2798 C   0  0  0  0  0  0  0  0  0  0  0  0
  190.7332  160.6282  121.0610 C   0  0  0  0  0  0  0  0  0  0  0  0
  192.0234  160.4065  120.6578 C   0  0  0  0  0  0  0  0  0  0  0  0
  193.0497  160.8532  121.4662 C   0  0  0  0  0  0  0  0  0  0  0  0
  192.7360  161.5295  122.6774 C   0  0  0  0  0  0  0  0  0  0  0  0
  189.2011  161.5844  122.9442 C   0  0  0  0  0  0  0  0  0  0  0  0
  187.9179  161.7534  122.9492 C   0  0  0  0  0  0  0  0  0  0  0  0
  187.4482  162.0570  124.3149 C   0  0  0  0  0  0  0  0  0  0  0  0
  188.5048  162.0470  125.1532 C   0  0  0  0  0  0  0  0  0  0  0  0
  189.6435  161.7224  124.3866 C   0  0  2  0  0  0  0  0  0  0  0  0
  190.2058  160.4643  124.7866 O   0  0  0  0  0  0  0  0  0  0  0  0
  189.8623  160.0721  126.0490 C   0  0  2  0  0  0  0  0  0  0  0  0
  190.8009  160.6273  126.9122 O   0  0  0  0  0  0  0  0  0  0  0  0
  190.8779  160.0390  128.1662 C   0  0  0  0  0  0  0  0  0  0  0  0
  189.5984  160.0303  128.8928 C   0  0  0  0  0  0  0  0  0  0  0  0
  191.8176  160.9712  128.9604 C   0  0  0  0  0  0  0  0  0  0  0  0
  191.5705  158.7184  127.9808 C   0  0  2  0  0  0  0  0  0  0  0  0
  191.2442  158.1503  126.6465 C   0  0  1  0  0  0  0  0  0  0  0  0
  191.3220  156.7897  126.5125 O   0  0  0  0  0  0  0  0  0  0  0  0
  189.8926  158.5637  126.0926 C   0  0  1  0  0  0  0  0  0  0  0  0
  188.8210  157.9899  126.7234 O   0  0  0  0  0  0  0  0  0  0  0  0
  191.3357  157.7664  129.0364 N   0  0  0  0  0  0  0  0  0  0  0  0
  190.1701  158.0849  129.8325 C   0  0  0  0  0  0  0  0  0  0  0  0
  192.4729  157.8949  129.9650 C   0  0  0  0  0  0  0  0  0  0  0  0
  190.3273  164.5056  121.3297 C   0  0  0  0  0  0  0  0  0  0  0  0
  188.5053  164.4883  121.2554 Cl  0  0  0  0  0  0  0  0  0  0  0  0
  190.8015  164.9007  120.0429 C   0  0  0  0  0  0  0  0  0  0  0  0
  193.7678  166.4687  118.4685 N   0  0  0  0  0  4  0  0  0  0  0  0
  189.1602  156.7672  120.3864 C   0  0  0  0  0  0  0  0  0  0  0  0
  1  2  1  0
  2  3  2  0
  2  4  1  0
  4  5  2  0
  4  6  1  0
  6  7  1  0
  7  8  2  0
  8  9  1  0
  9 10  1  0
 10 11  1  0
  9 12  2  0
 12 13  1  0
 13 14  1  0
 14 15  2  0
 14 16  1  0
 17 16  1  6
 17 18  1  0
 18 19  1  0
 19 20  1  0
 20 21  2  0
 20 22  1  0
 22 23  1  0
 23 24  1  0
 24 25  2  0
 25 26  1  0
 26 27  1  0
 26 28  2  0
 28 29  1  0
 30 29  1  6
 30 31  1  0
 31 32  2  0
 32 33  1  0
 33 34  2  0
 34 35  1  0
 35 36  2  0
 32 37  1  0
 37 38  2  0
 38 39  1  0
 39 40  2  0
 40 41  1  0
 41 42  1  1
 43 42  1  6
 43 44  1  0
 44 45  1  0
 45 46  1  0
 45 47  1  0
 45 48  1  0
 48 49  1  0
 49 50  1  1
 49 51  1  0
 51 52  1  1
 48 53  1  1
 53 54  1  0
 53 55  1  0
 28 56  1  0
 56 57  1  0
 56 58  2  0
 23 59  1  1
 13 60  2  0
 60  1  1  0
 60  7  1  0
 34 17  1  0
 41 37  1  0
 51 43  1  0
 58 24  1  0
 41 30  1  0
 36 31  1  0
M  CHG  1  59   1
M  END
$$$$
