
     RDKit          3D

 60 67  0  0  0  0  0  0  0  0999 V2000
  122.7171  140.6901  133.1968 N   0  0  0  0  0  0  0  0  0  0  0  0
  121.7362  141.0094  134.2074 C   0  0  0  0  0  0  0  0  0  0  0  0
  122.0890  141.6725  135.1959 O   0  0  0  0  0  0  0  0  0  0  0  0
  120.3873  140.5207  133.9847 C   0  0  0  0  0  0  0  0  0  0  0  0
  119.4476  140.7828  134.8772 C   0  0  0  0  0  0  0  0  0  0  0  0
  120.0888  139.7876  132.8488 O   0  0  0  0  0  0  0  0  0  0  0  0
  121.0389  139.4850  131.8819 C   0  0  0  0  0  0  0  0  0  0  0  0
  120.7014  138.7522  130.7660 C   0  0  0  0  0  0  0  0  0  0  0  0
  121.6369  138.4519  129.8099 C   0  0  0  0  0  0  0  0  0  0  0  0
  121.3096  137.7161  128.6819 O   0  0  0  0  0  0  0  0  0  0  0  0
  119.9920  137.2617  128.4612 C   0  0  0  0  0  0  0  0  0  0  0  0
  122.9041  138.9084  130.0147 C   0  0  0  0  0  0  0  0  0  0  0  0
  123.3207  139.6510  131.1106 C   0  0  0  0  0  0  0  0  0  0  0  0
  124.7068  140.0810  131.1936 C   0  0  0  0  0  0  0  0  0  0  0  0
  125.1685  140.6699  130.1378 O   0  0  0  0  0  0  0  0  0  0  0  0
  125.5848  139.9581  132.2087 O   0  0  0  0  0  0  0  0  0  0  0  0
  126.0461  138.7637  132.7418 C   0  0  1  0  0  0  0  0  0  0  0  0
  125.0405  137.5880  132.5347 C   0  0  0  0  0  0  0  0  0  0  0  0
  125.6278  136.3677  132.5537 O   0  0  0  0  0  0  0  0  0  0  0  0
  125.6149  135.2084  133.2004 C   0  0  0  0  0  0  0  0  0  0  0  0
  126.2622  134.9182  134.2742 O   0  0  0  0  0  0  0  0  0  0  0  0
  124.7913  134.0728  132.6951 C   0  0  0  0  0  0  0  0  0  0  0  0
  125.5980  133.0325  131.9479 C   0  0  1  0  0  0  0  0  0  0  0  0
  126.9115  133.6029  131.4043 C   0  0  0  0  0  0  0  0  0  0  0  0
  128.0535  133.6789  132.1659 C   0  0  0  0  0  0  0  0  0  0  0  0
  129.2618  134.2744  131.6772 C   0  0  0  0  0  0  0  0  0  0  0  0
  130.2766  134.1717  132.7150 O   0  0  0  0  0  0  0  0  0  0  0  0
  129.3385  134.8028  130.4316 C   0  0  0  0  0  0  0  0  0  0  0  0
  130.5137  135.4251  129.9471 O   0  0  0  0  0  0  0  0  0  0  0  0
  130.9300  136.7392  130.4102 C   0  0  2  0  0  0  0  0  0  0  0  0
  129.8833  137.2721  131.2987 C   0  0  0  0  0  0  0  0  0  0  0  0
  128.9662  137.8758  130.4534 C   0  0  0  0  0  0  0  0  0  0  0  0
  127.7323  138.3842  130.9353 C   0  0  0  0  0  0  0  0  0  0  0  0
  127.4200  138.2929  132.2659 C   0  0  0  0  0  0  0  0  0  0  0  0
  128.3337  137.7018  133.1156 C   0  0  0  0  0  0  0  0  0  0  0  0
  129.5559  137.2047  132.5845 C   0  0  0  0  0  0  0  0  0  0  0  0
  129.5436  137.9273  129.1136 C   0  0  0  0  0  0  0  0  0  0  0  0
  129.4570  138.0372  127.8269 C   0  0  0  0  0  0  0  0  0  0  0  0
  130.7973  137.9485  127.2155 C   0  0  0  0  0  0  0  0  0  0  0  0
  131.7147  137.7978  128.1927 C   0  0  0  0  0  0  0  0  0  0  0  0
  131.0224  137.8109  129.4216 C   0  0  2  0  0  0  0  0  0  0  0  0
  131.3868  138.9471  130.2186 O   0  0  0  0  0  0  0  0  0  0  0  0
  132.1513  139.8700  129.5636 C   0  0  2  0  0  0  0  0  0  0  0  0
  133.4089  139.3013  129.3911 O   0  0  0  0  0  0  0  0  0  0  0  0
  134.4342  140.1952  129.1188 C   0  0  0  0  0  0  0  0  0  0  0  0
  134.1889  141.0301  127.9323 C   0  0  0  0  0  0  0  0  0  0  0  0
  135.6357  139.2916  128.7684 C   0  0  0  0  0  0  0  0  0  0  0  0
  134.7393  140.9063  130.4069 C   0  0  2  0  0  0  0  0  0  0  0  0
  133.5038  141.0458  131.2215 C   0  0  1  0  0  0  0  0  0  0  0  0
  133.4605  142.0821  132.1157 O   0  0  0  0  0  0  0  0  0  0  0  0
  132.2170  141.1119  130.4189 C   0  0  1  0  0  0  0  0  0  0  0  0
  132.0334  142.2847  129.7360 O   0  0  0  0  0  0  0  0  0  0  0  0
  135.4170  142.1677  130.2477 N   0  0  0  0  0  0  0  0  0  0  0  0
  134.5064  143.2750  130.0515 C   0  0  0  0  0  0  0  0  0  0  0  0
  136.1711  142.0716  128.9852 C   0  0  0  0  0  0  0  0  0  0  0  0
  128.2087  134.7160  129.6747 C   0  0  0  0  0  0  0  0  0  0  0  0
  127.9888  135.1163  127.9091 Cl  0  0  0  0  0  0  0  0  0  0  0  0
  126.9908  134.1297  130.1324 C   0  0  0  0  0  0  0  0  0  0  0  0
  125.7579  131.8462  132.7786 N   0  0  0  0  0  4  0  0  0  0  0  0
  122.3525  139.9421  132.0658 C   0  0  0  0  0  0  0  0  0  0  0  0
  1  2  1  0
  2  3  2  0
  2  4  1  0
  4  5  2  0
  4  6  1  0
  6  7  1  0
  7  8  2  0
  8  9  1  0
  9 10  1  0
 10 11  1  0
  9 12  2  0
 12 13  1  0
 13 14  1  0
 14 15  2  0
 14 16  1  0
 17 16  1  6
 17 18  1  0
 18 19  1  0
 19 20  1  0
 20 21  2  0
 20 22  1  0
 22 23  1  0
 23 24  1  0
 24 25  2  0
 25 26  1  0
 26 27  1  0
 26 28  2  0
 28 29  1  0
 30 29  1  6
 30 31  1  0
 31 32  2  0
 32 33  1  0
 33 34  2  0
 34 35  1  0
 35 36  2  0
 32 37  1  0
 37 38  2  0
 38 39  1  0
 39 40  2  0
 40 41  1  0
 41 42  1  1
 43 42  1  1
 43 44  1  0
 44 45  1  0
 45 46  1  0
 45 47  1  0
 45 48  1  0
 48 49  1  0
 49 50  1  6
 49 51  1  0
 51 52  1  6
 48 53  1  6
 53 54  1  0
 53 55  1  0
 28 56  1  0
 56 57  1  0
 56 58  2  0
 23 59  1  1
 13 60  2  0
 60  1  1  0
 60  7  1  0
 34 17  1  0
 41 37  1  0
 51 43  1  0
 58 24  1  0
 41 30  1  0
 36 31  1  0
M  CHG  1  59   1
M  END
$$$$
