
     RDKit          3D

 60 67  0  0  0  0  0  0  0  0999 V2000
  170.4415  144.6845  118.3882 N   0  0  0  0  0  0  0  0  0  0  0  0
  169.7867  144.9168  117.1222 C   0  0  0  0  0  0  0  0  0  0  0  0
  168.8268  144.1967  116.8036 O   0  0  0  0  0  0  0  0  0  0  0  0
  170.3119  145.9953  116.3043 C   0  0  0  0  0  0  0  0  0  0  0  0
  169.7517  146.2534  115.1348 C   0  0  0  0  0  0  0  0  0  0  0  0
  171.3886  146.7456  116.7455 O   0  0  0  0  0  0  0  0  0  0  0  0
  172.0124  146.5149  117.9648 C   0  0  0  0  0  0  0  0  0  0  0  0
  173.0817  147.2838  118.3669 C   0  0  0  0  0  0  0  0  0  0  0  0
  173.6995  147.0585  119.5699 C   0  0  0  0  0  0  0  0  0  0  0  0
  174.7757  147.8260  119.9864 O   0  0  0  0  0  0  0  0  0  0  0  0
  176.0836  147.5639  119.5259 C   0  0  0  0  0  0  0  0  0  0  0  0
  173.2101  146.0474  120.3407 C   0  0  0  0  0  0  0  0  0  0  0  0
  172.1391  145.2309  120.0054 C   0  0  0  0  0  0  0  0  0  0  0  0
  171.7173  144.1938  120.9326 C   0  0  0  0  0  0  0  0  0  0  0  0
  170.4478  144.1556  121.1810 O   0  0  0  0  0  0  0  0  0  0  0  0
  172.4526  143.2637  121.5732 O   0  0  0  0  0  0  0  0  0  0  0  0
  172.7660  143.2669  122.9242 C   0  0  1  0  0  0  0  0  0  0  0  0
  174.3037  143.3426  123.1815 C   0  0  0  0  0  0  0  0  0  0  0  0
  174.6220  143.8571  124.3934 O   0  0  0  0  0  0  0  0  0  0  0  0
  175.2550  143.5641  125.5229 C   0  0  0  0  0  0  0  0  0  0  0  0
  174.7697  142.9398  126.5383 O   0  0  0  0  0  0  0  0  0  0  0  0
  176.6781  143.9658  125.7151 C   0  0  0  0  0  0  0  0  0  0  0  0
  176.8419  145.2011  126.5743 C   0  0  1  0  0  0  0  0  0  0  0  0
  175.5741  146.0604  126.5962 C   0  0  0  0  0  0  0  0  0  0  0  0
  174.5337  145.8175  127.4614 C   0  0  0  0  0  0  0  0  0  0  0  0
  173.3209  146.5805  127.4343 C   0  0  0  0  0  0  0  0  0  0  0  0
  172.4443  146.0869  128.4855 O   0  0  0  0  0  0  0  0  0  0  0  0
  173.1344  147.5839  126.5426 C   0  0  0  0  0  0  0  0  0  0  0  0
  171.9293  148.3235  126.4804 O   0  0  0  0  0  0  0  0  0  0  0  0
  170.7105  147.7548  125.9277 C   0  0  2  0  0  0  0  0  0  0  0  0
  171.0250  146.4243  125.3800 C   0  0  0  0  0  0  0  0  0  0  0  0
  171.4806  146.6629  124.0934 C   0  0  0  0  0  0  0  0  0  0  0  0
  172.0195  145.6248  123.2902 C   0  0  0  0  0  0  0  0  0  0  0  0
  172.0961  144.3457  123.7746 C   0  0  0  0  0  0  0  0  0  0  0  0
  171.6345  144.0988  125.0521 C   0  0  0  0  0  0  0  0  0  0  0  0
  171.1055  145.1732  125.8195 C   0  0  0  0  0  0  0  0  0  0  0  0
  171.2291  148.0644  123.7713 C   0  0  0  0  0  0  0  0  0  0  0  0
  171.4365  149.1427  123.0861 C   0  0  0  0  0  0  0  0  0  0  0  0
  170.5741  150.2344  123.5784 C   0  0  0  0  0  0  0  0  0  0  0  0
  169.8116  149.7678  124.5885 C   0  0  0  0  0  0  0  0  0  0  0  0
  170.1281  148.4033  124.7553 C   0  0  2  0  0  0  0  0  0  0  0  0
  169.0059  147.5622  124.4522 O   0  0  0  0  0  0  0  0  0  0  0  0
  167.7938  148.1819  124.5633 C   0  0  2  0  0  0  0  0  0  0  0  0
  167.5593  148.3663  125.9218 O   0  0  0  0  0  0  0  0  0  0  0  0
  166.2377  148.6029  126.2711 C   0  0  0  0  0  0  0  0  0  0  0  0
  165.6454  149.7624  125.5855 C   0  0  0  0  0  0  0  0  0  0  0  0
  166.3068  148.9765  127.7672 C   0  0  0  0  0  0  0  0  0  0  0  0
  165.5172  147.2903  126.1459 C   0  0  2  0  0  0  0  0  0  0  0  0
  166.1153  146.4783  125.0538 C   0  0  1  0  0  0  0  0  0  0  0  0
  165.3072  145.5505  124.4528 O   0  0  0  0  0  0  0  0  0  0  0  0
  166.7532  147.2854  123.9375 C   0  0  1  0  0  0  0  0  0  0  0  0
  165.8616  147.9299  123.1220 O   0  0  0  0  0  0  0  0  0  0  0  0
  164.0881  147.4037  126.0032 N   0  0  0  0  0  0  0  0  0  0  0  0
  163.3674  146.3724  126.7180 C   0  0  0  0  0  0  0  0  0  0  0  0
  163.7967  147.1503  124.5809 C   0  0  0  0  0  0  0  0  0  0  0  0
  174.1715  147.8301  125.6938 C   0  0  0  0  0  0  0  0  0  0  0  0
  174.3761  149.2084  124.5173 Cl  0  0  0  0  0  0  0  0  0  0  0  0
  175.3909  147.0885  125.6958 C   0  0  0  0  0  0  0  0  0  0  0  0
  177.3305  144.8200  127.8931 N   0  0  0  0  0  4  0  0  0  0  0  0
  171.5300  145.4802  118.7801 C   0  0  0  0  0  0  0  0  0  0  0  0
  1  2  1  0
  2  3  2  0
  2  4  1  0
  4  5  2  0
  4  6  1  0
  6  7  1  0
  7  8  2  0
  8  9  1  0
  9 10  1  0
 10 11  1  0
  9 12  2  0
 12 13  1  0
 13 14  1  0
 14 15  2  0
 14 16  1  0
 17 16  1  6
 17 18  1  0
 18 19  1  0
 19 20  1  0
 20 21  2  0
 20 22  1  0
 22 23  1  0
 23 24  1  0
 24 25  2  0
 25 26  1  0
 26 27  1  0
 26 28  2  0
 28 29  1  0
 30 29  1  6
 30 31  1  0
 31 32  2  0
 32 33  1  0
 33 34  2  0
 34 35  1  0
 35 36  2  0
 32 37  1  0
 37 38  2  0
 38 39  1  0
 39 40  2  0
 40 41  1  0
 41 42  1  6
 43 42  1  1
 43 44  1  0
 44 45  1  0
 45 46  1  0
 45 47  1  0
 45 48  1  0
 48 49  1  0
 49 50  1  6
 49 51  1  0
 51 52  1  1
 48 53  1  6
 53 54  1  0
 53 55  1  0
 28 56  1  0
 56 57  1  0
 56 58  2  0
 23 59  1  1
 13 60  2  0
 60  1  1  0
 60  7  1  0
 34 17  1  0
 41 37  1  0
 51 43  1  0
 58 24  1  0
 41 30  1  0
 36 31  1  0
M  CHG  1  59   1
M  END
$$$$
