
     RDKit          3D

 60 67  0  0  0  0  0  0  0  0999 V2000
  172.2940  143.7266  122.9249 N   0  0  0  0  0  0  0  0  0  0  0  0
  172.7375  142.3648  123.1099 C   0  0  0  0  0  0  0  0  0  0  0  0
  171.9517  141.4388  122.8521 O   0  0  0  0  0  0  0  0  0  0  0  0
  174.0946  142.1806  123.5921 C   0  0  0  0  0  0  0  0  0  0  0  0
  174.5547  140.9553  123.7801 C   0  0  0  0  0  0  0  0  0  0  0  0
  174.8982  143.2776  123.8522 O   0  0  0  0  0  0  0  0  0  0  0  0
  174.4630  144.5840  123.6716 C   0  0  0  0  0  0  0  0  0  0  0  0
  175.2936  145.6484  123.9427 C   0  0  0  0  0  0  0  0  0  0  0  0
  174.8669  146.9391  123.7654 C   0  0  0  0  0  0  0  0  0  0  0  0
  175.6937  148.0186  124.0336 O   0  0  0  0  0  0  0  0  0  0  0  0
  176.8948  148.2160  123.3198 C   0  0  0  0  0  0  0  0  0  0  0  0
  173.5942  147.1168  123.3130 C   0  0  0  0  0  0  0  0  0  0  0  0
  172.6993  146.0979  123.0183 C   0  0  0  0  0  0  0  0  0  0  0  0
  171.3714  146.4353  122.5326 C   0  0  0  0  0  0  0  0  0  0  0  0
  171.2680  146.5685  121.2494 O   0  0  0  0  0  0  0  0  0  0  0  0
  170.2291  146.6302  123.2206 O   0  0  0  0  0  0  0  0  0  0  0  0
  169.7006  145.7734  124.1744 C   0  0  1  0  0  0  0  0  0  0  0  0
  170.8050  145.0645  125.0195 C   0  0  0  0  0  0  0  0  0  0  0  0
  170.3729  144.6571  126.2369 O   0  0  0  0  0  0  0  0  0  0  0  0
  170.2263  143.5724  126.9879 C   0  0  0  0  0  0  0  0  0  0  0  0
  169.2279  142.7603  126.9818 O   0  0  0  0  0  0  0  0  0  0  0  0
  171.2826  143.1851  127.9665 C   0  0  0  0  0  0  0  0  0  0  0  0
  170.9458  143.5619  129.3933 C   0  0  1  0  0  0  0  0  0  0  0  0
  169.9204  144.6976  129.4628 C   0  0  0  0  0  0  0  0  0  0  0  0
  168.5658  144.4733  129.3935 C   0  0  0  0  0  0  0  0  0  0  0  0
  167.6115  145.5424  129.3909 C   0  0  0  0  0  0  0  0  0  0  0  0
  166.2767  144.9662  129.3329 O   0  0  0  0  0  0  0  0  0  0  0  0
  167.9998  146.8395  129.4505 C   0  0  0  0  0  0  0  0  0  0  0  0
  167.0716  147.9072  129.4138 O   0  0  0  0  0  0  0  0  0  0  0  0
  166.3869  148.2838  128.1875 C   0  0  2  0  0  0  0  0  0  0  0  0
  166.9304  147.4738  127.0840 C   0  0  0  0  0  0  0  0  0  0  0  0
  168.0532  148.1611  126.6518 C   0  0  0  0  0  0  0  0  0  0  0  0
  168.9341  147.6133  125.6838 C   0  0  0  0  0  0  0  0  0  0  0  0
  168.6864  146.3788  125.1444 C   0  0  0  0  0  0  0  0  0  0  0  0
  167.5638  145.6927  125.5630 C   0  0  0  0  0  0  0  0  0  0  0  0
  166.7124  146.2825  126.5378 C   0  0  0  0  0  0  0  0  0  0  0  0
  168.0672  149.4689  127.3004 C   0  0  0  0  0  0  0  0  0  0  0  0
  168.6582  150.5490  127.6994 C   0  0  0  0  0  0  0  0  0  0  0  0
  167.6953  151.4361  128.3805 C   0  0  0  0  0  0  0  0  0  0  0  0
  166.4778  150.8557  128.3631 C   0  0  0  0  0  0  0  0  0  0  0  0
  166.6076  149.6328  127.6720 C   0  0  2  0  0  0  0  0  0  0  0  0
  165.8506  149.6345  126.4531 O   0  0  0  0  0  0  0  0  0  0  0  0
  165.8598  150.8276  125.7884 C   0  0  2  0  0  0  0  0  0  0  0  0
  165.5242  151.8078  126.7164 O   0  0  0  0  0  0  0  0  0  0  0  0
  165.0876  153.0105  126.1804 C   0  0  0  0  0  0  0  0  0  0  0  0
  166.0503  153.6269  125.2539 C   0  0  0  0  0  0  0  0  0  0  0  0
  164.9987  153.9536  127.3992 C   0  0  0  0  0  0  0  0  0  0  0  0
  163.6959  152.7731  125.6658 C   0  0  2  0  0  0  0  0  0  0  0  0
  163.5588  151.3740  125.1828 C   0  0  1  0  0  0  0  0  0  0  0  0
  162.6040  151.1341  124.2309 O   0  0  0  0  0  0  0  0  0  0  0  0
  164.8448  150.7479  124.6742 C   0  0  1  0  0  0  0  0  0  0  0  0
  165.2785  151.2392  123.4717 O   0  0  0  0  0  0  0  0  0  0  0  0
  163.2536  153.7231  124.6771 N   0  0  0  0  0  0  0  0  0  0  0  0
  161.8344  153.9950  124.7531 C   0  0  0  0  0  0  0  0  0  0  0  0
  163.4430  153.0716  123.3688 C   0  0  0  0  0  0  0  0  0  0  0  0
  169.3423  147.0587  129.5306 C   0  0  0  0  0  0  0  0  0  0  0  0
  170.2229  148.6268  129.8328 Cl  0  0  0  0  0  0  0  0  0  0  0  0
  170.3170  146.0163  129.5351 C   0  0  0  0  0  0  0  0  0  0  0  0
  170.5698  142.3684  130.1400 N   0  0  0  0  0  4  0  0  0  0  0  0
  173.1568  144.7979  123.2066 C   0  0  0  0  0  0  0  0  0  0  0  0
  1  2  1  0
  2  3  2  0
  2  4  1  0
  4  5  2  0
  4  6  1  0
  6  7  1  0
  7  8  2  0
  8  9  1  0
  9 10  1  0
 10 11  1  0
  9 12  2  0
 12 13  1  0
 13 14  1  0
 14 15  2  0
 14 16  1  0
 17 16  1  1
 17 18  1  0
 18 19  1  0
 19 20  1  0
 20 21  2  0
 20 22  1  0
 22 23  1  0
 23 24  1  0
 24 25  2  0
 25 26  1  0
 26 27  1  0
 26 28  2  0
 28 29  1  0
 30 29  1  1
 30 31  1  0
 31 32  2  0
 32 33  1  0
 33 34  2  0
 34 35  1  0
 35 36  2  0
 32 37  1  0
 37 38  2  0
 38 39  1  0
 39 40  2  0
 40 41  1  0
 41 42  1  6
 43 42  1  1
 43 44  1  0
 44 45  1  0
 45 46  1  0
 45 47  1  0
 45 48  1  0
 48 49  1  0
 49 50  1  6
 49 51  1  0
 51 52  1  6
 48 53  1  6
 53 54  1  0
 53 55  1  0
 28 56  1  0
 56 57  1  0
 56 58  2  0
 23 59  1  1
 13 60  2  0
 60  1  1  0
 60  7  1  0
 34 17  1  0
 41 37  1  0
 51 43  1  0
 58 24  1  0
 41 30  1  0
 36 31  1  0
M  CHG  1  59   1
M  END
$$$$
