
     RDKit          3D

 60 67  0  0  0  0  0  0  0  0999 V2000
  129.6150  142.1192  134.1005 N   0  0  0  0  0  0  0  0  0  0  0  0
  129.5780  143.0139  132.9675 C   0  0  0  0  0  0  0  0  0  0  0  0
  130.5696  143.0790  132.2233 O   0  0  0  0  0  0  0  0  0  0  0  0
  128.3603  143.7828  132.7832 C   0  0  0  0  0  0  0  0  0  0  0  0
  128.2699  144.6185  131.7625 C   0  0  0  0  0  0  0  0  0  0  0  0
  127.3047  143.6418  133.6678 O   0  0  0  0  0  0  0  0  0  0  0  0
  127.3493  142.7787  134.7551 C   0  0  0  0  0  0  0  0  0  0  0  0
  126.2775  142.6680  135.6125 C   0  0  0  0  0  0  0  0  0  0  0  0
  126.3185  141.8169  136.6866 C   0  0  0  0  0  0  0  0  0  0  0  0
  125.2460  141.6958  137.5561 O   0  0  0  0  0  0  0  0  0  0  0  0
  124.5520  142.8312  138.0253 C   0  0  0  0  0  0  0  0  0  0  0  0
  127.4592  141.0934  136.8636 C   0  0  0  0  0  0  0  0  0  0  0  0
  128.5785  141.1495  136.0450 C   0  0  0  0  0  0  0  0  0  0  0  0
  129.7257  140.3104  136.3495 C   0  0  0  0  0  0  0  0  0  0  0  0
  129.9353  140.0938  137.6081 O   0  0  0  0  0  0  0  0  0  0  0  0
  130.6055  139.7226  135.5148 O   0  0  0  0  0  0  0  0  0  0  0  0
  130.4635  138.4693  134.9383 C   0  0  1  0  0  0  0  0  0  0  0  0
  129.2762  137.6608  135.5491 C   0  0  0  0  0  0  0  0  0  0  0  0
  128.7854  136.7126  134.7156 O   0  0  0  0  0  0  0  0  0  0  0  0
  128.5817  135.4043  134.6209 C   0  0  0  0  0  0  0  0  0  0  0  0
  129.4277  134.5197  134.2234 O   0  0  0  0  0  0  0  0  0  0  0  0
  127.2622  134.8182  134.9936 C   0  0  0  0  0  0  0  0  0  0  0  0
  126.3899  134.4961  133.7992 C   0  0  1  0  0  0  0  0  0  0  0  0
  126.7812  135.3116  132.5630 C   0  0  0  0  0  0  0  0  0  0  0  0
  127.7838  134.9194  131.7081 C   0  0  0  0  0  0  0  0  0  0  0  0
  128.1933  135.7176  130.5905 C   0  0  0  0  0  0  0  0  0  0  0  0
  129.2504  135.0102  129.8839 O   0  0  0  0  0  0  0  0  0  0  0  0
  127.6125  136.9122  130.3218 C   0  0  0  0  0  0  0  0  0  0  0  0
  128.0291  137.7278  129.2428 O   0  0  0  0  0  0  0  0  0  0  0  0
  129.2790  138.4698  129.2829 C   0  0  2  0  0  0  0  0  0  0  0  0
  129.8761  138.3029  130.6188 C   0  0  0  0  0  0  0  0  0  0  0  0
  129.2860  139.2817  131.4020 C   0  0  0  0  0  0  0  0  0  0  0  0
  129.5047  139.3464  132.8024 C   0  0  0  0  0  0  0  0  0  0  0  0
  130.3200  138.4333  133.4171 C   0  0  0  0  0  0  0  0  0  0  0  0
  130.9194  137.4613  132.6412 C   0  0  0  0  0  0  0  0  0  0  0  0
  130.6670  137.4360  131.2417 C   0  0  0  0  0  0  0  0  0  0  0  0
  128.5334  140.1758  130.5271 C   0  0  0  0  0  0  0  0  0  0  0  0
  127.6220  141.0667  130.3018 C   0  0  0  0  0  0  0  0  0  0  0  0
  127.5894  141.4123  128.8674 C   0  0  0  0  0  0  0  0  0  0  0  0
  128.5400  140.7033  128.2249 C   0  0  0  0  0  0  0  0  0  0  0  0
  129.2086  139.9263  129.1940 C   0  0  2  0  0  0  0  0  0  0  0  0
  130.5822  140.3190  129.3270 O   0  0  0  0  0  0  0  0  0  0  0  0
  131.2250  140.5229  128.1393 C   0  0  2  0  0  0  0  0  0  0  0  0
  132.0278  139.4085  127.9198 O   0  0  0  0  0  0  0  0  0  0  0  0
  133.0498  139.5833  126.9981 C   0  0  0  0  0  0  0  0  0  0  0  0
  132.5813  140.0255  125.6752 C   0  0  0  0  0  0  0  0  0  0  0  0
  133.6220  138.1634  126.7996 C   0  0  0  0  0  0  0  0  0  0  0  0
  134.0979  140.4239  127.6710 C   0  0  2  0  0  0  0  0  0  0  0  0
  133.4625  141.3697  128.6257 C   0  0  1  0  0  0  0  0  0  0  0  0
  134.1458  142.5222  128.9090 O   0  0  0  0  0  0  0  0  0  0  0  0
  132.0470  141.7825  128.2647 C   0  0  1  0  0  0  0  0  0  0  0  0
  131.9588  142.6300  127.1926 O   0  0  0  0  0  0  0  0  0  0  0  0
  134.9927  141.1009  126.7672 N   0  0  0  0  0  0  0  0  0  0  0  0
  136.1316  140.2915  126.3911 C   0  0  0  0  0  0  0  0  0  0  0  0
  135.5650  142.2281  127.5247 C   0  0  0  0  0  0  0  0  0  0  0  0
  126.6113  137.2933  131.1639 C   0  0  0  0  0  0  0  0  0  0  0  0
  125.4704  138.7075  131.0084 Cl  0  0  0  0  0  0  0  0  0  0  0  0
  126.1811  136.5214  132.2846 C   0  0  0  0  0  0  0  0  0  0  0  0
  126.3660  133.0552  133.5837 N   0  0  0  0  0  4  0  0  0  0  0  0
  128.5112  142.0205  134.9626 C   0  0  0  0  0  0  0  0  0  0  0  0
  1  2  1  0
  2  3  2  0
  2  4  1  0
  4  5  2  0
  4  6  1  0
  6  7  1  0
  7  8  2  0
  8  9  1  0
  9 10  1  0
 10 11  1  0
  9 12  2  0
 12 13  1  0
 13 14  1  0
 14 15  2  0
 14 16  1  0
 17 16  1  1
 17 18  1  0
 18 19  1  0
 19 20  1  0
 20 21  2  0
 20 22  1  0
 22 23  1  0
 23 24  1  0
 24 25  2  0
 25 26  1  0
 26 27  1  0
 26 28  2  0
 28 29  1  0
 30 29  1  1
 30 31  1  0
 31 32  2  0
 32 33  1  0
 33 34  2  0
 34 35  1  0
 35 36  2  0
 32 37  1  0
 37 38  2  0
 38 39  1  0
 39 40  2  0
 40 41  1  0
 41 42  1  1
 43 42  1  1
 43 44  1  0
 44 45  1  0
 45 46  1  0
 45 47  1  0
 45 48  1  0
 48 49  1  0
 49 50  1  6
 49 51  1  0
 51 52  1  6
 48 53  1  6
 53 54  1  0
 53 55  1  0
 28 56  1  0
 56 57  1  0
 56 58  2  0
 23 59  1  6
 13 60  2  0
 60  1  1  0
 60  7  1  0
 34 17  1  0
 41 37  1  0
 51 43  1  0
 58 24  1  0
 41 30  1  0
 36 31  1  0
M  CHG  1  59   1
M  END
$$$$
