
     RDKit          3D

 60 67  0  0  0  0  0  0  0  0999 V2000
  136.7394  164.9393  153.8201 N   0  0  0  0  0  0  0  0  0  0  0  0
  138.1597  164.9471  153.5593 C   0  0  0  0  0  0  0  0  0  0  0  0
  138.5593  165.2714  152.4294 O   0  0  0  0  0  0  0  0  0  0  0  0
  139.0271  164.5676  154.6600 C   0  0  0  0  0  0  0  0  0  0  0  0
  140.3368  164.5566  154.4788 C   0  0  0  0  0  0  0  0  0  0  0  0
  138.4874  164.2210  155.8869 O   0  0  0  0  0  0  0  0  0  0  0  0
  137.1197  164.2162  156.1287 C   0  0  0  0  0  0  0  0  0  0  0  0
  136.6227  163.8642  157.3637 C   0  0  0  0  0  0  0  0  0  0  0  0
  135.2732  163.8584  157.6055 C   0  0  0  0  0  0  0  0  0  0  0  0
  134.7607  163.5072  158.8443 O   0  0  0  0  0  0  0  0  0  0  0  0
  133.9637  164.4034  159.5877 C   0  0  0  0  0  0  0  0  0  0  0  0
  134.4554  164.2138  156.5754 C   0  0  0  0  0  0  0  0  0  0  0  0
  134.8793  164.5801  155.3057 C   0  0  0  0  0  0  0  0  0  0  0  0
  133.8919  164.9459  154.3037 C   0  0  0  0  0  0  0  0  0  0  0  0
  133.1721  165.9832  154.5878 O   0  0  0  0  0  0  0  0  0  0  0  0
  133.6137  164.3650  153.1198 O   0  0  0  0  0  0  0  0  0  0  0  0
  133.1507  163.0700  152.9409 C   0  0  1  0  0  0  0  0  0  0  0  0
  133.7619  162.0684  153.9703 C   0  0  0  0  0  0  0  0  0  0  0  0
  132.9935  160.9721  154.1761 O   0  0  0  0  0  0  0  0  0  0  0  0
  133.0107  159.6479  154.0839 C   0  0  0  0  0  0  0  0  0  0  0  0
  132.7507  158.9452  153.0376 O   0  0  0  0  0  0  0  0  0  0  0  0
  133.3563  158.8144  155.2709 C   0  0  0  0  0  0  0  0  0  0  0  0
  132.1469  158.2132  155.9545 C   0  0  1  0  0  0  0  0  0  0  0  0
  130.8653  158.9952  155.6512 C   0  0  0  0  0  0  0  0  0  0  0  0
  130.1137  158.7697  154.5224 C   0  0  0  0  0  0  0  0  0  0  0  0
  128.9526  159.5483  154.2071 C   0  0  0  0  0  0  0  0  0  0  0  0
  128.3815  159.0403  152.9690 O   0  0  0  0  0  0  0  0  0  0  0  0
  128.5374  160.5588  155.0092 C   0  0  0  0  0  0  0  0  0  0  0  0
  127.4134  161.3590  154.6938 O   0  0  0  0  0  0  0  0  0  0  0  0
  127.4590  162.3611  153.6412 C   0  0  2  0  0  0  0  0  0  0  0  0
  128.8385  162.4371  153.1309 C   0  0  0  0  0  0  0  0  0  0  0  0
  129.4884  163.3187  153.9795 C   0  0  0  0  0  0  0  0  0  0  0  0
  130.8871  163.5407  153.8927 C   0  0  0  0  0  0  0  0  0  0  0  0
  131.6338  162.8832  152.9511 C   0  0  0  0  0  0  0  0  0  0  0  0
  130.9910  162.0108  152.0955 C   0  0  0  0  0  0  0  0  0  0  0  0
  129.5875  161.8197  152.2237 C   0  0  0  0  0  0  0  0  0  0  0  0
  128.4890  163.9513  154.8351 C   0  0  0  0  0  0  0  0  0  0  0  0
  128.1255  164.5965  155.8966 C   0  0  0  0  0  0  0  0  0  0  0  0
  126.6656  164.8120  155.8883 C   0  0  0  0  0  0  0  0  0  0  0  0
  126.1518  164.2838  154.7586 C   0  0  0  0  0  0  0  0  0  0  0  0
  127.2289  163.7539  154.0176 C   0  0  2  0  0  0  0  0  0  0  0  0
  127.4072  164.4515  152.7765 O   0  0  0  0  0  0  0  0  0  0  0  0
  126.2465  164.8986  152.2122 C   0  0  2  0  0  0  0  0  0  0  0  0
  125.8680  163.9515  151.2665 O   0  0  0  0  0  0  0  0  0  0  0  0
  124.9608  164.3913  150.3135 C   0  0  0  0  0  0  0  0  0  0  0  0
  123.7162  164.9267  150.8874 C   0  0  0  0  0  0  0  0  0  0  0  0
  124.5665  163.1082  149.5515 C   0  0  0  0  0  0  0  0  0  0  0  0
  125.7218  165.2828  149.3732 C   0  0  2  0  0  0  0  0  0  0  0  0
  126.8038  165.9944  150.1030 C   0  0  1  0  0  0  0  0  0  0  0  0
  127.2260  167.1884  149.5821 O   0  0  0  0  0  0  0  0  0  0  0  0
  126.5242  166.2384  151.5750 C   0  0  1  0  0  0  0  0  0  0  0  0
  125.5754  167.1946  151.8218 O   0  0  0  0  0  0  0  0  0  0  0  0
  124.9011  166.1943  148.6174 N   0  0  0  0  0  0  0  0  0  0  0  0
  123.4979  166.1037  148.9589 C   0  0  0  0  0  0  0  0  0  0  0  0
  124.9773  165.7480  147.2149 C   0  0  0  0  0  0  0  0  0  0  0  0
  129.2775  160.7729  156.1331 C   0  0  0  0  0  0  0  0  0  0  0  0
  128.9200  161.8811  157.5366 Cl  0  0  0  0  0  0  0  0  0  0  0  0
  130.4379  160.0154  156.4745 C   0  0  0  0  0  0  0  0  0  0  0  0
  132.0676  156.7906  155.6490 N   0  0  0  0  0  4  0  0  0  0  0  0
  136.2529  164.5778  155.0866 C   0  0  0  0  0  0  0  0  0  0  0  0
  1  2  1  0
  2  3  2  0
  2  4  1  0
  4  5  2  0
  4  6  1  0
  6  7  1  0
  7  8  2  0
  8  9  1  0
  9 10  1  0
 10 11  1  0
  9 12  2  0
 12 13  1  0
 13 14  1  0
 14 15  2  0
 14 16  1  0
 17 16  1  1
 17 18  1  0
 18 19  1  0
 19 20  1  0
 20 21  2  0
 20 22  1  0
 22 23  1  0
 23 24  1  0
 24 25  2  0
 25 26  1  0
 26 27  1  0
 26 28  2  0
 28 29  1  0
 30 29  1  1
 30 31  1  0
 31 32  2  0
 32 33  1  0
 33 34  2  0
 34 35  1  0
 35 36  2  0
 32 37  1  0
 37 38  2  0
 38 39  1  0
 39 40  2  0
 40 41  1  0
 41 42  1  6
 43 42  1  6
 43 44  1  0
 44 45  1  0
 45 46  1  0
 45 47  1  0
 45 48  1  0
 48 49  1  0
 49 50  1  6
 49 51  1  0
 51 52  1  6
 48 53  1  1
 53 54  1  0
 53 55  1  0
 28 56  1  0
 56 57  1  0
 56 58  2  0
 23 59  1  6
 13 60  2  0
 60  1  1  0
 60  7  1  0
 34 17  1  0
 41 37  1  0
 51 43  1  0
 58 24  1  0
 41 30  1  0
 36 31  1  0
M  CHG  1  59   1
M  END
$$$$
