
     RDKit          3D

 60 67  0  0  0  0  0  0  0  0999 V2000
  203.2528  140.1663  131.3201 N   0  0  0  0  0  0  0  0  0  0  0  0
  202.9855  141.5763  131.1591 C   0  0  0  0  0  0  0  0  0  0  0  0
  203.2255  142.3431  132.1055 O   0  0  0  0  0  0  0  0  0  0  0  0
  202.4464  141.9958  129.8780 C   0  0  0  0  0  0  0  0  0  0  0  0
  202.1820  143.2751  129.6739 C   0  0  0  0  0  0  0  0  0  0  0  0
  202.2117  141.0648  128.8805 O   0  0  0  0  0  0  0  0  0  0  0  0
  202.4718  139.7104  129.0443 C   0  0  0  0  0  0  0  0  0  0  0  0
  202.2236  138.8161  128.0270 C   0  0  0  0  0  0  0  0  0  0  0  0
  202.4792  137.4785  128.1857 C   0  0  0  0  0  0  0  0  0  0  0  0
  202.2348  136.5688  127.1692 O   0  0  0  0  0  0  0  0  0  0  0  0
  200.9224  136.3039  126.7237 C   0  0  0  0  0  0  0  0  0  0  0  0
  202.9852  137.0802  129.3863 C   0  0  0  0  0  0  0  0  0  0  0  0
  203.2615  137.9188  130.4571 C   0  0  0  0  0  0  0  0  0  0  0  0
  203.8106  137.3552  131.6793 C   0  0  0  0  0  0  0  0  0  0  0  0
  204.8577  136.6106  131.5245 O   0  0  0  0  0  0  0  0  0  0  0  0
  203.3913  137.4930  132.9527 O   0  0  0  0  0  0  0  0  0  0  0  0
  202.7963  136.5043  133.7220 C   0  0  1  0  0  0  0  0  0  0  0  0
  201.5559  135.8662  133.0215 C   0  0  0  0  0  0  0  0  0  0  0  0
  201.2768  134.6143  133.4566 O   0  0  0  0  0  0  0  0  0  0  0  0
  200.3220  133.8931  134.0314 C   0  0  0  0  0  0  0  0  0  0  0  0
  200.0970  133.7790  135.2934 O   0  0  0  0  0  0  0  0  0  0  0  0
  199.3699  133.1031  133.1990 C   0  0  0  0  0  0  0  0  0  0  0  0
  199.7040  131.6279  133.1423 C   0  0  1  0  0  0  0  0  0  0  0  0
  201.1778  131.3580  133.4606 C   0  0  0  0  0  0  0  0  0  0  0  0
  201.6423  131.2287  134.7481 C   0  0  0  0  0  0  0  0  0  0  0  0
  203.0317  131.0435  135.0461 C   0  0  0  0  0  0  0  0  0  0  0  0
  203.1794  130.9200  136.4884 O   0  0  0  0  0  0  0  0  0  0  0  0
  203.9664  130.9926  134.0660 C   0  0  0  0  0  0  0  0  0  0  0  0
  205.3458  130.8451  134.3461 O   0  0  0  0  0  0  0  0  0  0  0  0
  206.1367  131.9368  134.8912 C   0  0  2  0  0  0  0  0  0  0  0  0
  205.2912  133.1414  134.9459 C   0  0  0  0  0  0  0  0  0  0  0  0
  205.3955  133.7123  133.6878 C   0  0  0  0  0  0  0  0  0  0  0  0
  204.6007  134.8242  133.3068 C   0  0  0  0  0  0  0  0  0  0  0  0
  203.7052  135.3679  134.1893 C   0  0  0  0  0  0  0  0  0  0  0  0
  203.6032  134.8104  135.4483 C   0  0  0  0  0  0  0  0  0  0  0  0
  204.4196  133.6946  135.7822 C   0  0  0  0  0  0  0  0  0  0  0  0
  206.4554  133.0223  132.9586 C   0  0  0  0  0  0  0  0  0  0  0  0
  207.0667  132.6757  131.8717 C   0  0  0  0  0  0  0  0  0  0  0  0
  208.2274  131.8212  132.1890 C   0  0  0  0  0  0  0  0  0  0  0  0
  208.3106  131.6757  133.5273 C   0  0  0  0  0  0  0  0  0  0  0  0
  207.2600  132.4262  134.0955 C   0  0  2  0  0  0  0  0  0  0  0  0
  207.7589  133.5144  134.8866 O   0  0  0  0  0  0  0  0  0  0  0  0
  208.8311  133.1936  135.6695 C   0  0  2  0  0  0  0  0  0  0  0  0
  208.8972  134.1532  136.6741 O   0  0  0  0  0  0  0  0  0  0  0  0
  210.1188  134.2513  137.3242 C   0  0  0  0  0  0  0  0  0  0  0  0
  210.5692  132.9866  137.9266 C   0  0  0  0  0  0  0  0  0  0  0  0
  209.8416  135.2132  138.4993 C   0  0  0  0  0  0  0  0  0  0  0  0
  211.0609  134.9310  136.3710 C   0  0  2  0  0  0  0  0  0  0  0  0
  210.7190  134.5739  134.9691 C   0  0  1  0  0  0  0  0  0  0  0  0
  211.7279  134.6396  134.0455 O   0  0  0  0  0  0  0  0  0  0  0  0
  210.0651  133.2144  134.8006 C   0  0  1  0  0  0  0  0  0  0  0  0
  210.9093  132.1517  134.9837 O   0  0  0  0  0  0  0  0  0  0  0  0
  212.4569  134.7107  136.6509 N   0  0  0  0  0  0  0  0  0  0  0  0
  212.8540  135.2005  137.9533 C   0  0  0  0  0  0  0  0  0  0  0  0
  213.2038  135.5435  135.6913 C   0  0  0  0  0  0  0  0  0  0  0  0
  203.5021  131.1096  132.7903 C   0  0  0  0  0  0  0  0  0  0  0  0
  204.4091  130.8835  131.2244 Cl  0  0  0  0  0  0  0  0  0  0  0  0
  202.1258  131.2950  132.4613 C   0  0  0  0  0  0  0  0  0  0  0  0
  198.7656  130.8803  133.9691 N   0  0  0  0  0  4  0  0  0  0  0  0
  202.9934  139.2708  130.2702 C   0  0  0  0  0  0  0  0  0  0  0  0
  1  2  1  0
  2  3  2  0
  2  4  1  0
  4  5  2  0
  4  6  1  0
  6  7  1  0
  7  8  2  0
  8  9  1  0
  9 10  1  0
 10 11  1  0
  9 12  2  0
 12 13  1  0
 13 14  1  0
 14 15  2  0
 14 16  1  0
 17 16  1  6
 17 18  1  0
 18 19  1  0
 19 20  1  0
 20 21  2  0
 20 22  1  0
 22 23  1  0
 23 24  1  0
 24 25  2  0
 25 26  1  0
 26 27  1  0
 26 28  2  0
 28 29  1  0
 30 29  1  6
 30 31  1  0
 31 32  2  0
 32 33  1  0
 33 34  2  0
 34 35  1  0
 35 36  2  0
 32 37  1  0
 37 38  2  0
 38 39  1  0
 39 40  2  0
 40 41  1  0
 41 42  1  1
 43 42  1  6
 43 44  1  0
 44 45  1  0
 45 46  1  0
 45 47  1  0
 45 48  1  0
 48 49  1  0
 49 50  1  6
 49 51  1  0
 51 52  1  1
 48 53  1  1
 53 54  1  0
 53 55  1  0
 28 56  1  0
 56 57  1  0
 56 58  2  0
 23 59  1  1
 13 60  2  0
 60  1  1  0
 60  7  1  0
 34 17  1  0
 41 37  1  0
 51 43  1  0
 58 24  1  0
 41 30  1  0
 36 31  1  0
M  CHG  1  59   1
M  END
$$$$
