
     RDKit          3D

 60 67  0  0  0  0  0  0  0  0999 V2000
  201.8925  137.8473  129.4108 N   0  0  0  0  0  0  0  0  0  0  0  0
  201.5916  137.9085  127.9997 C   0  0  0  0  0  0  0  0  0  0  0  0
  200.6726  137.2036  127.5523 O   0  0  0  0  0  0  0  0  0  0  0  0
  202.4027  138.8072  127.1982 C   0  0  0  0  0  0  0  0  0  0  0  0
  202.1721  138.9040  125.8998 C   0  0  0  0  0  0  0  0  0  0  0  0
  203.4073  139.5549  127.7884 O   0  0  0  0  0  0  0  0  0  0  0  0
  203.6899  139.4895  129.1466 C   0  0  0  0  0  0  0  0  0  0  0  0
  204.6987  140.2496  129.6949 C   0  0  0  0  0  0  0  0  0  0  0  0
  204.9801  140.1872  131.0352 C   0  0  0  0  0  0  0  0  0  0  0  0
  205.9920  140.9479  131.5992 O   0  0  0  0  0  0  0  0  0  0  0  0
  206.7872  141.8074  130.8120 C   0  0  0  0  0  0  0  0  0  0  0  0
  204.2215  139.3452  131.7914 C   0  0  0  0  0  0  0  0  0  0  0  0
  203.1901  138.5491  131.3134 C   0  0  0  0  0  0  0  0  0  0  0  0
  202.4562  137.7029  132.2399 C   0  0  0  0  0  0  0  0  0  0  0  0
  201.3781  138.2238  132.7310 O   0  0  0  0  0  0  0  0  0  0  0  0
  202.7313  136.4538  132.6645 O   0  0  0  0  0  0  0  0  0  0  0  0
  203.9896  135.9629  132.9791 C   0  0  1  0  0  0  0  0  0  0  0  0
  204.8109  136.9479  133.8690 C   0  0  0  0  0  0  0  0  0  0  0  0
  205.7703  136.3368  134.6042 O   0  0  0  0  0  0  0  0  0  0  0  0
  207.0818  136.3192  134.8089 C   0  0  0  0  0  0  0  0  0  0  0  0
  207.9570  135.6535  134.1402 O   0  0  0  0  0  0  0  0  0  0  0  0
  207.6837  137.1267  135.9085 C   0  0  0  0  0  0  0  0  0  0  0  0
  208.0244  136.3090  137.1359 C   0  0  1  0  0  0  0  0  0  0  0  0
  207.2105  135.0135  137.2096 C   0  0  0  0  0  0  0  0  0  0  0  0
  207.5937  133.8641  136.5600 C   0  0  0  0  0  0  0  0  0  0  0  0
  206.7963  132.6735  136.5751 C   0  0  0  0  0  0  0  0  0  0  0  0
  207.4932  131.6445  135.8183 O   0  0  0  0  0  0  0  0  0  0  0  0
  205.6113  132.6223  137.2307 C   0  0  0  0  0  0  0  0  0  0  0  0
  204.7961  131.4653  137.2261 O   0  0  0  0  0  0  0  0  0  0  0  0
  204.0369  131.0691  136.0509 C   0  0  2  0  0  0  0  0  0  0  0  0
  204.1882  132.1151  135.0252 C   0  0  0  0  0  0  0  0  0  0  0  0
  203.2132  133.0539  135.3215 C   0  0  0  0  0  0  0  0  0  0  0  0
  203.1376  134.2915  134.6318 C   0  0  0  0  0  0  0  0  0  0  0  0
  204.0361  134.5859  133.6406 C   0  0  0  0  0  0  0  0  0  0  0  0
  205.0042  133.6508  133.3331 C   0  0  0  0  0  0  0  0  0  0  0  0
  205.0407  132.4257  134.0547 C   0  0  0  0  0  0  0  0  0  0  0  0
  202.3343  132.4939  136.3439 C   0  0  0  0  0  0  0  0  0  0  0  0
  201.4573  132.5981  137.2899 C   0  0  0  0  0  0  0  0  0  0  0  0
  201.1201  131.2639  137.8229 C   0  0  0  0  0  0  0  0  0  0  0  0
  201.8197  130.3319  137.1437 C   0  0  0  0  0  0  0  0  0  0  0  0
  202.5820  131.0095  136.1692 C   0  0  2  0  0  0  0  0  0  0  0  0
  202.1698  130.6577  134.8406 O   0  0  0  0  0  0  0  0  0  0  0  0
  201.3637  129.5570  134.7761 C   0  0  2  0  0  0  0  0  0  0  0  0
  201.4923  128.8924  135.9911 O   0  0  0  0  0  0  0  0  0  0  0  0
  201.0866  127.5657  135.9899 C   0  0  0  0  0  0  0  0  0  0  0  0
  199.6931  127.3759  135.5573 C   0  0  0  0  0  0  0  0  0  0  0  0
  201.1348  127.1578  137.4779 C   0  0  0  0  0  0  0  0  0  0  0  0
  202.1446  126.7923  135.2548 C   0  0  2  0  0  0  0  0  0  0  0  0
  202.7521  127.6357  134.1921 C   0  0  1  0  0  0  0  0  0  0  0  0
  203.3058  126.9860  133.1213 O   0  0  0  0  0  0  0  0  0  0  0  0
  201.8334  128.7025  133.6241 C   0  0  1  0  0  0  0  0  0  0  0  0
  200.8306  128.2214  132.8251 O   0  0  0  0  0  0  0  0  0  0  0  0
  201.7059  125.5205  134.7390 N   0  0  0  0  0  0  0  0  0  0  0  0
  202.3667  124.3988  135.3705 C   0  0  0  0  0  0  0  0  0  0  0  0
  202.1459  125.4744  133.3331 C   0  0  0  0  0  0  0  0  0  0  0  0
  205.2391  133.7592  137.8832 C   0  0  0  0  0  0  0  0  0  0  0  0
  203.8416  134.0081  139.0280 Cl  0  0  0  0  0  0  0  0  0  0  0  0
  206.0106  134.9598  137.8868 C   0  0  0  0  0  0  0  0  0  0  0  0
  209.4666  136.1160  137.2119 N   0  0  0  0  0  4  0  0  0  0  0  0
  202.9250  138.6310  129.9504 C   0  0  0  0  0  0  0  0  0  0  0  0
  1  2  1  0
  2  3  2  0
  2  4  1  0
  4  5  2  0
  4  6  1  0
  6  7  1  0
  7  8  2  0
  8  9  1  0
  9 10  1  0
 10 11  1  0
  9 12  2  0
 12 13  1  0
 13 14  1  0
 14 15  2  0
 14 16  1  0
 17 16  1  1
 17 18  1  0
 18 19  1  0
 19 20  1  0
 20 21  2  0
 20 22  1  0
 22 23  1  0
 23 24  1  0
 24 25  2  0
 25 26  1  0
 26 27  1  0
 26 28  2  0
 28 29  1  0
 30 29  1  1
 30 31  1  0
 31 32  2  0
 32 33  1  0
 33 34  2  0
 34 35  1  0
 35 36  2  0
 32 37  1  0
 37 38  2  0
 38 39  1  0
 39 40  2  0
 40 41  1  0
 41 42  1  6
 43 42  1  1
 43 44  1  0
 44 45  1  0
 45 46  1  0
 45 47  1  0
 45 48  1  0
 48 49  1  0
 49 50  1  6
 49 51  1  0
 51 52  1  1
 48 53  1  6
 53 54  1  0
 53 55  1  0
 28 56  1  0
 56 57  1  0
 56 58  2  0
 23 59  1  6
 13 60  2  0
 60  1  1  0
 60  7  1  0
 34 17  1  0
 41 37  1  0
 51 43  1  0
 58 24  1  0
 41 30  1  0
 36 31  1  0
M  CHG  1  59   1
M  END
$$$$
