
     RDKit          3D

 60 67  0  0  0  0  0  0  0  0999 V2000
  117.0730  172.5807  147.8882 N   0  0  0  0  0  0  0  0  0  0  0  0
  116.8667  174.0070  147.9818 C   0  0  0  0  0  0  0  0  0  0  0  0
  116.6339  174.5065  149.0943 O   0  0  0  0  0  0  0  0  0  0  0  0
  116.9494  174.7606  146.7436 C   0  0  0  0  0  0  0  0  0  0  0  0
  116.7689  176.0702  146.7690 C   0  0  0  0  0  0  0  0  0  0  0  0
  117.2147  174.1137  145.5487 O   0  0  0  0  0  0  0  0  0  0  0  0
  117.4116  172.7412  145.4681 C   0  0  0  0  0  0  0  0  0  0  0  0
  117.6727  172.1356  144.2593 C   0  0  0  0  0  0  0  0  0  0  0  0
  117.8674  170.7810  144.1765 C   0  0  0  0  0  0  0  0  0  0  0  0
  118.1319  170.1599  142.9661 O   0  0  0  0  0  0  0  0  0  0  0  0
  117.9891  170.8488  141.7430 C   0  0  0  0  0  0  0  0  0  0  0  0
  117.7908  170.0697  145.3358 C   0  0  0  0  0  0  0  0  0  0  0  0
  117.5324  170.6064  146.5893 C   0  0  0  0  0  0  0  0  0  0  0  0
  117.4892  169.7262  147.7453 C   0  0  0  0  0  0  0  0  0  0  0  0
  118.3018  170.0316  148.7051 O   0  0  0  0  0  0  0  0  0  0  0  0
  116.7271  168.6370  147.9675 O   0  0  0  0  0  0  0  0  0  0  0  0
  115.4786  168.3944  147.4147 C   0  0  1  0  0  0  0  0  0  0  0  0
  114.7841  169.6979  146.9100 C   0  0  0  0  0  0  0  0  0  0  0  0
  113.8634  169.4769  145.9414 O   0  0  0  0  0  0  0  0  0  0  0  0
  112.5748  169.6359  145.6645 C   0  0  0  0  0  0  0  0  0  0  0  0
  111.6151  168.8383  145.9794 O   0  0  0  0  0  0  0  0  0  0  0  0
  112.1082  170.8361  144.9126 C   0  0  0  0  0  0  0  0  0  0  0  0
  111.8357  170.5590  143.4497 C   0  0  1  0  0  0  0  0  0  0  0  0
  112.5907  169.3251  142.9464 C   0  0  0  0  0  0  0  0  0  0  0  0
  112.0993  168.0495  143.0928 C   0  0  0  0  0  0  0  0  0  0  0  0
  112.8380  166.8922  142.6819 C   0  0  0  0  0  0  0  0  0  0  0  0
  112.0310  165.7123  142.9532 O   0  0  0  0  0  0  0  0  0  0  0  0
  114.0711  166.9975  142.1295 C   0  0  0  0  0  0  0  0  0  0  0  0
  114.8273  165.8628  141.7505 O   0  0  0  0  0  0  0  0  0  0  0  0
  115.4634  165.0035  142.7361 C   0  0  2  0  0  0  0  0  0  0  0  0
  115.2744  165.6039  144.0676 C   0  0  0  0  0  0  0  0  0  0  0  0
  116.3145  166.5089  144.2056 C   0  0  0  0  0  0  0  0  0  0  0  0
  116.3891  167.3938  145.3121 C   0  0  0  0  0  0  0  0  0  0  0  0
  115.4240  167.3677  146.2839 C   0  0  0  0  0  0  0  0  0  0  0  0
  114.3900  166.4614  146.1580 C   0  0  0  0  0  0  0  0  0  0  0  0
  114.3575  165.5969  145.0290 C   0  0  0  0  0  0  0  0  0  0  0  0
  117.2503  166.3020  143.1044 C   0  0  0  0  0  0  0  0  0  0  0  0
  118.2091  166.6821  142.3225 C   0  0  0  0  0  0  0  0  0  0  0  0
  118.5273  165.6184  141.3503 C   0  0  0  0  0  0  0  0  0  0  0  0
  117.7288  164.5572  141.5861 C   0  0  0  0  0  0  0  0  0  0  0  0
  116.9187  164.8818  142.6943 C   0  0  2  0  0  0  0  0  0  0  0  0
  117.1984  164.0331  143.8169 O   0  0  0  0  0  0  0  0  0  0  0  0
  118.1200  163.0567  143.5664 C   0  0  2  0  0  0  0  0  0  0  0  0
  118.9173  162.9550  144.7015 O   0  0  0  0  0  0  0  0  0  0  0  0
  120.1397  162.3260  144.5161 C   0  0  0  0  0  0  0  0  0  0  0  0
  120.0255  160.9665  143.9649 C   0  0  0  0  0  0  0  0  0  0  0  0
  120.6990  162.1651  145.9459 C   0  0  0  0  0  0  0  0  0  0  0  0
  121.0153  163.2958  143.7740 C   0  0  2  0  0  0  0  0  0  0  0  0
  120.1939  164.1363  142.8637 C   0  0  1  0  0  0  0  0  0  0  0  0
  120.8216  164.6644  141.7672 O   0  0  0  0  0  0  0  0  0  0  0  0
  118.9245  163.4741  142.3594 C   0  0  1  0  0  0  0  0  0  0  0  0
  119.1293  162.4805  141.4394 O   0  0  0  0  0  0  0  0  0  0  0  0
  122.1256  162.6914  143.0830 N   0  0  0  0  0  0  0  0  0  0  0  0
  123.2550  162.4332  143.9500 C   0  0  0  0  0  0  0  0  0  0  0  0
  122.6097  163.7000  142.1236 C   0  0  0  0  0  0  0  0  0  0  0  0
  114.5510  168.2635  141.9750 C   0  0  0  0  0  0  0  0  0  0  0  0
  116.0518  168.8117  141.0957 Cl  0  0  0  0  0  0  0  0  0  0  0  0
  113.8404  169.4350  142.3740 C   0  0  0  0  0  0  0  0  0  0  0  0
  110.3977  170.5178  143.2179 N   0  0  0  0  0  4  0  0  0  0  0  0
  117.3387  171.9826  146.6460 C   0  0  0  0  0  0  0  0  0  0  0  0
  1  2  1  0
  2  3  2  0
  2  4  1  0
  4  5  2  0
  4  6  1  0
  6  7  1  0
  7  8  2  0
  8  9  1  0
  9 10  1  0
 10 11  1  0
  9 12  2  0
 12 13  1  0
 13 14  1  0
 14 15  2  0
 14 16  1  0
 17 16  1  6
 17 18  1  0
 18 19  1  0
 19 20  1  0
 20 21  2  0
 20 22  1  0
 22 23  1  0
 23 24  1  0
 24 25  2  0
 25 26  1  0
 26 27  1  0
 26 28  2  0
 28 29  1  0
 30 29  1  6
 30 31  1  0
 31 32  2  0
 32 33  1  0
 33 34  2  0
 34 35  1  0
 35 36  2  0
 32 37  1  0
 37 38  2  0
 38 39  1  0
 39 40  2  0
 40 41  1  0
 41 42  1  1
 43 42  1  1
 43 44  1  0
 44 45  1  0
 45 46  1  0
 45 47  1  0
 45 48  1  0
 48 49  1  0
 49 50  1  6
 49 51  1  0
 51 52  1  1
 48 53  1  6
 53 54  1  0
 53 55  1  0
 28 56  1  0
 56 57  1  0
 56 58  2  0
 23 59  1  1
 13 60  2  0
 60  1  1  0
 60  7  1  0
 34 17  1  0
 41 37  1  0
 51 43  1  0
 58 24  1  0
 41 30  1  0
 36 31  1  0
M  CHG  1  59   1
M  END
$$$$
