
     RDKit          3D

 60 67  0  0  0  0  0  0  0  0999 V2000
  193.0808  160.9280  134.3666 N   0  0  0  0  0  0  0  0  0  0  0  0
  193.9158  159.7795  134.6295 C   0  0  0  0  0  0  0  0  0  0  0  0
  193.4284  158.8106  135.2337 O   0  0  0  0  0  0  0  0  0  0  0  0
  195.2872  159.8484  134.1577 C   0  0  0  0  0  0  0  0  0  0  0  0
  196.0977  158.8257  134.3706 C   0  0  0  0  0  0  0  0  0  0  0  0
  195.7408  160.9742  133.4916 O   0  0  0  0  0  0  0  0  0  0  0  0
  194.9304  162.0744  133.2432 C   0  0  0  0  0  0  0  0  0  0  0  0
  195.4204  163.1758  132.5775 C   0  0  0  0  0  0  0  0  0  0  0  0
  194.6230  164.2633  132.3309 C   0  0  0  0  0  0  0  0  0  0  0  0
  195.1040  165.3772  131.6610 O   0  0  0  0  0  0  0  0  0  0  0  0
  195.7718  165.2557  130.4239 C   0  0  0  0  0  0  0  0  0  0  0  0
  193.3353  164.2032  132.7718 C   0  0  0  0  0  0  0  0  0  0  0  0
  192.7695  163.1316  133.4481 C   0  0  0  0  0  0  0  0  0  0  0  0
  191.3748  163.2012  133.8520 C   0  0  0  0  0  0  0  0  0  0  0  0
  190.5240  163.3329  132.8857 O   0  0  0  0  0  0  0  0  0  0  0  0
  190.8342  163.1484  135.0854 O   0  0  0  0  0  0  0  0  0  0  0  0
  189.9641  162.1728  135.5484 C   0  0  1  0  0  0  0  0  0  0  0  0
  189.1922  162.6187  136.8297 C   0  0  0  0  0  0  0  0  0  0  0  0
  188.0176  161.9673  137.0046 O   0  0  0  0  0  0  0  0  0  0  0  0
  187.3717  161.1819  137.8580 C   0  0  0  0  0  0  0  0  0  0  0  0
  187.4519  159.8999  137.9372 O   0  0  0  0  0  0  0  0  0  0  0  0
  186.4364  161.7674  138.8610 C   0  0  0  0  0  0  0  0  0  0  0  0
  184.9797  161.6353  138.4716 C   0  0  1  0  0  0  0  0  0  0  0  0
  184.8011  161.4521  136.9614 C   0  0  0  0  0  0  0  0  0  0  0  0
  184.8880  160.2226  136.3525 C   0  0  0  0  0  0  0  0  0  0  0  0
  184.7876  160.0626  134.9319 C   0  0  0  0  0  0  0  0  0  0  0  0
  184.8964  158.6454  134.6207 O   0  0  0  0  0  0  0  0  0  0  0  0
  184.6070  161.1248  134.1098 C   0  0  0  0  0  0  0  0  0  0  0  0
  184.5407  160.9870  132.7029 O   0  0  0  0  0  0  0  0  0  0  0  0
  185.7245  160.7112  131.9046 C   0  0  2  0  0  0  0  0  0  0  0  0
  186.9006  160.7444  132.7904 C   0  0  0  0  0  0  0  0  0  0  0  0
  187.2689  162.0788  132.8503 C   0  0  0  0  0  0  0  0  0  0  0  0
  188.2863  162.5313  133.7298 C   0  0  0  0  0  0  0  0  0  0  0  0
  188.9390  161.6450  134.5451 C   0  0  0  0  0  0  0  0  0  0  0  0
  188.5842  160.3121  134.4833 C   0  0  0  0  0  0  0  0  0  0  0  0
  187.5561  159.9077  133.5875 C   0  0  0  0  0  0  0  0  0  0  0  0
  186.5001  162.8113  131.8485 C   0  0  0  0  0  0  0  0  0  0  0  0
  186.0024  163.8954  131.3465 C   0  0  0  0  0  0  0  0  0  0  0  0
  185.2385  163.5873  130.1219 C   0  0  0  0  0  0  0  0  0  0  0  0
  185.3077  162.2612  129.8853 C   0  0  0  0  0  0  0  0  0  0  0  0
  186.1111  161.6972  130.8983 C   0  0  2  0  0  0  0  0  0  0  0  0
  187.3226  161.1456  130.3628 O   0  0  0  0  0  0  0  0  0  0  0  0
  187.4841  161.3430  129.0210 C   0  0  2  0  0  0  0  0  0  0  0  0
  186.4352  160.6841  128.3883 O   0  0  0  0  0  0  0  0  0  0  0  0
  186.6260  160.4184  127.0401 C   0  0  0  0  0  0  0  0  0  0  0  0
  186.9081  161.6187  126.2370 C   0  0  0  0  0  0  0  0  0  0  0  0
  185.2543  159.8945  126.5638 C   0  0  0  0  0  0  0  0  0  0  0  0
  187.6154  159.2904  126.9589 C   0  0  2  0  0  0  0  0  0  0  0  0
  188.5752  159.3669  128.0914 C   0  0  1  0  0  0  0  0  0  0  0  0
  189.8066  158.7978  127.9041 O   0  0  0  0  0  0  0  0  0  0  0  0
  188.8213  160.7673  128.6230 C   0  0  1  0  0  0  0  0  0  0  0  0
  189.5625  161.5670  127.7943 O   0  0  0  0  0  0  0  0  0  0  0  0
  188.2939  159.1800  125.6928 N   0  0  0  0  0  0  0  0  0  0  0  0
  187.4458  158.6574  124.6433 C   0  0  0  0  0  0  0  0  0  0  0  0
  189.3400  158.1581  125.8760 C   0  0  0  0  0  0  0  0  0  0  0  0
  184.5099  162.3409  134.7167 C   0  0  0  0  0  0  0  0  0  0  0  0
  184.0633  163.9479  133.9792 Cl  0  0  0  0  0  0  0  0  0  0  0  0
  184.6058  162.5329  136.1276 C   0  0  0  0  0  0  0  0  0  0  0  0
  184.3479  160.6005  139.2798 N   0  0  0  0  0  4  0  0  0  0  0  0
  193.5995  162.0410  133.6856 C   0  0  0  0  0  0  0  0  0  0  0  0
  1  2  1  0
  2  3  2  0
  2  4  1  0
  4  5  2  0
  4  6  1  0
  6  7  1  0
  7  8  2  0
  8  9  1  0
  9 10  1  0
 10 11  1  0
  9 12  2  0
 12 13  1  0
 13 14  1  0
 14 15  2  0
 14 16  1  0
 17 16  1  6
 17 18  1  0
 18 19  1  0
 19 20  1  0
 20 21  2  0
 20 22  1  0
 22 23  1  0
 23 24  1  0
 24 25  2  0
 25 26  1  0
 26 27  1  0
 26 28  2  0
 28 29  1  0
 30 29  1  1
 30 31  1  0
 31 32  2  0
 32 33  1  0
 33 34  2  0
 34 35  1  0
 35 36  2  0
 32 37  1  0
 37 38  2  0
 38 39  1  0
 39 40  2  0
 40 41  1  0
 41 42  1  6
 43 42  1  1
 43 44  1  0
 44 45  1  0
 45 46  1  0
 45 47  1  0
 45 48  1  0
 48 49  1  0
 49 50  1  6
 49 51  1  0
 51 52  1  6
 48 53  1  6
 53 54  1  0
 53 55  1  0
 28 56  1  0
 56 57  1  0
 56 58  2  0
 23 59  1  1
 13 60  2  0
 60  1  1  0
 60  7  1  0
 34 17  1  0
 41 37  1  0
 51 43  1  0
 58 24  1  0
 41 30  1  0
 36 31  1  0
M  CHG  1  59   1
M  END
$$$$
