
     RDKit          3D

 60 67  0  0  0  0  0  0  0  0999 V2000
  126.3221  139.7058  130.7381 N   0  0  0  0  0  0  0  0  0  0  0  0
  126.2649  141.1456  130.8341 C   0  0  0  0  0  0  0  0  0  0  0  0
  126.9682  141.8251  130.0692 O   0  0  0  0  0  0  0  0  0  0  0  0
  125.3721  141.6975  131.8372 C   0  0  0  0  0  0  0  0  0  0  0  0
  125.2791  143.0098  131.9702 C   0  0  0  0  0  0  0  0  0  0  0  0
  124.6257  140.8575  132.6458 O   0  0  0  0  0  0  0  0  0  0  0  0
  124.6871  139.4735  132.5466 C   0  0  0  0  0  0  0  0  0  0  0  0
  123.9286  138.6725  133.3707 C   0  0  0  0  0  0  0  0  0  0  0  0
  123.9871  137.3062  133.2752 C   0  0  0  0  0  0  0  0  0  0  0  0
  123.2279  136.4893  134.0980 O   0  0  0  0  0  0  0  0  0  0  0  0
  123.8346  135.5490  134.9575 C   0  0  0  0  0  0  0  0  0  0  0  0
  124.8236  136.7837  132.3354 C   0  0  0  0  0  0  0  0  0  0  0  0
  125.6179  137.5231  131.4701 C   0  0  0  0  0  0  0  0  0  0  0  0
  126.4580  136.8300  130.5075 C   0  0  0  0  0  0  0  0  0  0  0  0
  125.8994  135.8321  129.9016 O   0  0  0  0  0  0  0  0  0  0  0  0
  127.7349  137.0722  130.1505 O   0  0  0  0  0  0  0  0  0  0  0  0
  128.8464  136.9282  130.9672 C   0  0  1  0  0  0  0  0  0  0  0  0
  130.1226  136.5085  130.1724 C   0  0  0  0  0  0  0  0  0  0  0  0
  131.2783  136.8531  130.7889 O   0  0  0  0  0  0  0  0  0  0  0  0
  132.3935  136.3358  131.2900 C   0  0  0  0  0  0  0  0  0  0  0  0
  132.5572  135.8589  132.4741 O   0  0  0  0  0  0  0  0  0  0  0  0
  133.6301  136.2638  130.4599 C   0  0  0  0  0  0  0  0  0  0  0  0
  134.6310  137.3535  130.7788 C   0  0  1  0  0  0  0  0  0  0  0  0
  133.9714  138.5656  131.4434 C   0  0  0  0  0  0  0  0  0  0  0  0
  133.7424  138.6302  132.7974 C   0  0  0  0  0  0  0  0  0  0  0  0
  133.0645  139.7354  133.4078 C   0  0  0  0  0  0  0  0  0  0  0  0
  133.0089  139.5040  134.8432 O   0  0  0  0  0  0  0  0  0  0  0  0
  132.6054  140.7783  132.6740 C   0  0  0  0  0  0  0  0  0  0  0  0
  131.9037  141.8602  133.2573 O   0  0  0  0  0  0  0  0  0  0  0  0
  130.5311  141.7227  133.7171 C   0  0  2  0  0  0  0  0  0  0  0  0
  130.0487  140.3815  133.3465 C   0  0  0  0  0  0  0  0  0  0  0  0
  129.5858  140.5115  132.0470 C   0  0  0  0  0  0  0  0  0  0  0  0
  129.1696  139.3864  131.2893 C   0  0  0  0  0  0  0  0  0  0  0  0
  129.2117  138.1313  131.8362 C   0  0  0  0  0  0  0  0  0  0  0  0
  129.6622  137.9955  133.1342 C   0  0  0  0  0  0  0  0  0  0  0  0
  130.0712  139.1531  133.8523 C   0  0  0  0  0  0  0  0  0  0  0  0
  129.5586  141.9318  131.7108 C   0  0  0  0  0  0  0  0  0  0  0  0
  129.5332  142.9146  130.8690 C   0  0  0  0  0  0  0  0  0  0  0  0
  129.5299  144.2032  131.5885 C   0  0  0  0  0  0  0  0  0  0  0  0
  129.5349  143.9631  132.9157 C   0  0  0  0  0  0  0  0  0  0  0  0
  129.5155  142.5631  133.0874 C   0  0  2  0  0  0  0  0  0  0  0  0
  128.3049  142.1278  133.7229 O   0  0  0  0  0  0  0  0  0  0  0  0
  127.7069  143.0775  134.5012 C   0  0  2  0  0  0  0  0  0  0  0  0
  128.4252  144.2551  134.3224 O   0  0  0  0  0  0  0  0  0  0  0  0
  128.2440  145.2180  135.3045 C   0  0  0  0  0  0  0  0  0  0  0  0
  126.8387  145.6123  135.4911 C   0  0  0  0  0  0  0  0  0  0  0  0
  128.9698  146.4616  134.7483 C   0  0  0  0  0  0  0  0  0  0  0  0
  128.9897  144.7409  136.5187 C   0  0  2  0  0  0  0  0  0  0  0  0
  128.9706  143.2559  136.5823 C   0  0  1  0  0  0  0  0  0  0  0  0
  129.1060  142.6833  137.8189 O   0  0  0  0  0  0  0  0  0  0  0  0
  127.7609  142.6071  135.9343 C   0  0  1  0  0  0  0  0  0  0  0  0
  126.5918  142.7636  136.6302 O   0  0  0  0  0  0  0  0  0  0  0  0
  128.5547  145.3322  137.7584 N   0  0  0  0  0  0  0  0  0  0  0  0
  128.4863  146.7764  137.6997 C   0  0  0  0  0  0  0  0  0  0  0  0
  129.6127  145.0447  138.7433 C   0  0  0  0  0  0  0  0  0  0  0  0
  132.8436  140.7172  131.3337 C   0  0  0  0  0  0  0  0  0  0  0  0
  132.5706  142.0035  130.0701 Cl  0  0  0  0  0  0  0  0  0  0  0  0
  133.5152  139.6311  130.6965 C   0  0  0  0  0  0  0  0  0  0  0  0
  135.7459  136.7910  131.5297 N   0  0  0  0  0  4  0  0  0  0  0  0
  125.5399  138.9068  131.5875 C   0  0  0  0  0  0  0  0  0  0  0  0
  1  2  1  0
  2  3  2  0
  2  4  1  0
  4  5  2  0
  4  6  1  0
  6  7  1  0
  7  8  2  0
  8  9  1  0
  9 10  1  0
 10 11  1  0
  9 12  2  0
 12 13  1  0
 13 14  1  0
 14 15  2  0
 14 16  1  0
 17 16  1  6
 17 18  1  0
 18 19  1  0
 19 20  1  0
 20 21  2  0
 20 22  1  0
 22 23  1  0
 23 24  1  0
 24 25  2  0
 25 26  1  0
 26 27  1  0
 26 28  2  0
 28 29  1  0
 30 29  1  6
 30 31  1  0
 31 32  2  0
 32 33  1  0
 33 34  2  0
 34 35  1  0
 35 36  2  0
 32 37  1  0
 37 38  2  0
 38 39  1  0
 39 40  2  0
 40 41  1  0
 41 42  1  1
 43 42  1  6
 43 44  1  0
 44 45  1  0
 45 46  1  0
 45 47  1  0
 45 48  1  0
 48 49  1  0
 49 50  1  1
 49 51  1  0
 51 52  1  1
 48 53  1  1
 53 54  1  0
 53 55  1  0
 28 56  1  0
 56 57  1  0
 56 58  2  0
 23 59  1  1
 13 60  2  0
 60  1  1  0
 60  7  1  0
 34 17  1  0
 41 37  1  0
 51 43  1  0
 58 24  1  0
 41 30  1  0
 36 31  1  0
M  CHG  1  59   1
M  END
$$$$
