
     RDKit          3D

 60 67  0  0  0  0  0  0  0  0999 V2000
  124.3840  138.1496  129.1704 N   0  0  0  0  0  0  0  0  0  0  0  0
  123.2782  138.5076  130.0273 C   0  0  0  0  0  0  0  0  0  0  0  0
  123.4643  139.3414  130.9282 O   0  0  0  0  0  0  0  0  0  0  0  0
  122.0098  137.8522  129.7634 C   0  0  0  0  0  0  0  0  0  0  0  0
  120.9621  138.1413  130.5166 C   0  0  0  0  0  0  0  0  0  0  0  0
  121.8992  136.9340  128.7332 O   0  0  0  0  0  0  0  0  0  0  0  0
  122.9685  136.5955  127.9141 C   0  0  0  0  0  0  0  0  0  0  0  0
  122.8172  135.6763  126.9000 C   0  0  0  0  0  0  0  0  0  0  0  0
  123.8708  135.3400  126.0898 C   0  0  0  0  0  0  0  0  0  0  0  0
  123.7310  134.4173  125.0653 O   0  0  0  0  0  0  0  0  0  0  0  0
  122.6070  134.4349  124.2125 C   0  0  0  0  0  0  0  0  0  0  0  0
  125.0630  135.9525  126.3337 C   0  0  0  0  0  0  0  0  0  0  0  0
  125.2939  136.8867  127.3337 C   0  0  0  0  0  0  0  0  0  0  0  0
  126.6190  137.4680  127.4725 C   0  0  0  0  0  0  0  0  0  0  0  0
  126.9435  138.3308  126.5642 O   0  0  0  0  0  0  0  0  0  0  0  0
  127.5621  137.2422  128.4084 O   0  0  0  0  0  0  0  0  0  0  0  0
  127.6121  136.1508  129.2626 C   0  0  1  0  0  0  0  0  0  0  0  0
  127.8971  134.8138  128.5091 C   0  0  0  0  0  0  0  0  0  0  0  0
  128.4538  133.8613  129.2948 O   0  0  0  0  0  0  0  0  0  0  0  0
  128.2531  132.6315  129.7527 C   0  0  0  0  0  0  0  0  0  0  0  0
  127.5716  132.2983  130.7924 O   0  0  0  0  0  0  0  0  0  0  0  0
  128.8452  131.4588  129.0474 C   0  0  0  0  0  0  0  0  0  0  0  0
  130.0940  130.9247  129.7156 C   0  0  1  0  0  0  0  0  0  0  0  0
  130.7727  131.9788  130.5955 C   0  0  0  0  0  0  0  0  0  0  0  0
  130.3932  132.2083  131.8967 C   0  0  0  0  0  0  0  0  0  0  0  0
  130.9839  133.2406  132.6962 C   0  0  0  0  0  0  0  0  0  0  0  0
  130.3788  133.1999  134.0188 O   0  0  0  0  0  0  0  0  0  0  0  0
  131.9500  134.0535  132.2035 C   0  0  0  0  0  0  0  0  0  0  0  0
  132.5185  135.0994  132.9690 O   0  0  0  0  0  0  0  0  0  0  0  0
  131.7875  136.3240  133.2529 C   0  0  2  0  0  0  0  0  0  0  0  0
  130.5106  136.2838  132.5202 C   0  0  0  0  0  0  0  0  0  0  0  0
  130.8051  136.7690  131.2563 C   0  0  0  0  0  0  0  0  0  0  0  0
  129.8475  136.7484  130.2095 C   0  0  0  0  0  0  0  0  0  0  0  0
  128.5922  136.2468  130.4313 C   0  0  0  0  0  0  0  0  0  0  0  0
  128.2886  135.7710  131.6913 C   0  0  0  0  0  0  0  0  0  0  0  0
  129.2834  135.8104  132.7071 C   0  0  0  0  0  0  0  0  0  0  0  0
  132.1583  137.3161  131.2799 C   0  0  0  0  0  0  0  0  0  0  0  0
  133.2527  137.7040  130.7080 C   0  0  0  0  0  0  0  0  0  0  0  0
  134.2183  138.1750  131.7197 C   0  0  0  0  0  0  0  0  0  0  0  0
  133.6554  138.0755  132.9414 C   0  0  0  0  0  0  0  0  0  0  0  0
  132.3472  137.5801  132.7597 C   0  0  2  0  0  0  0  0  0  0  0  0
  131.3603  138.5439  133.1545 O   0  0  0  0  0  0  0  0  0  0  0  0
  131.8742  139.7539  133.5248 C   0  0  2  0  0  0  0  0  0  0  0  0
  132.2864  139.6283  134.8472 O   0  0  0  0  0  0  0  0  0  0  0  0
  132.4600  140.8219  135.5327 C   0  0  0  0  0  0  0  0  0  0  0  0
  133.4107  141.7400  134.8860 C   0  0  0  0  0  0  0  0  0  0  0  0
  133.1112  140.3968  136.8661 C   0  0  0  0  0  0  0  0  0  0  0  0
  131.0857  141.3531  135.8277 C   0  0  2  0  0  0  0  0  0  0  0  0
  130.1434  140.9698  134.7439 C   0  0  1  0  0  0  0  0  0  0  0  0
  129.0484  141.7708  134.5578 O   0  0  0  0  0  0  0  0  0  0  0  0
  130.7837  140.7872  133.3796 C   0  0  1  0  0  0  0  0  0  0  0  0
  131.1786  141.9521  132.7774 O   0  0  0  0  0  0  0  0  0  0  0  0
  131.0368  142.7671  136.0999 N   0  0  0  0  0  0  0  0  0  0  0  0
  129.8267  143.1668  136.7852 C   0  0  0  0  0  0  0  0  0  0  0  0
  130.9653  143.4349  134.7881 C   0  0  0  0  0  0  0  0  0  0  0  0
  132.3324  133.8166  130.9173 C   0  0  0  0  0  0  0  0  0  0  0  0
  133.7222  134.5482  129.9906 Cl  0  0  0  0  0  0  0  0  0  0  0  0
  131.7636  132.7973  130.0960 C   0  0  0  0  0  0  0  0  0  0  0  0
  129.7869  129.6773  130.4034 N   0  0  0  0  0  4  0  0  0  0  0  0
  124.2088  137.2103  128.1415 C   0  0  0  0  0  0  0  0  0  0  0  0
  1  2  1  0
  2  3  2  0
  2  4  1  0
  4  5  2  0
  4  6  1  0
  6  7  1  0
  7  8  2  0
  8  9  1  0
  9 10  1  0
 10 11  1  0
  9 12  2  0
 12 13  1  0
 13 14  1  0
 14 15  2  0
 14 16  1  0
 17 16  1  6
 17 18  1  0
 18 19  1  0
 19 20  1  0
 20 21  2  0
 20 22  1  0
 22 23  1  0
 23 24  1  0
 24 25  2  0
 25 26  1  0
 26 27  1  0
 26 28  2  0
 28 29  1  0
 30 29  1  6
 30 31  1  0
 31 32  2  0
 32 33  1  0
 33 34  2  0
 34 35  1  0
 35 36  2  0
 32 37  1  0
 37 38  2  0
 38 39  1  0
 39 40  2  0
 40 41  1  0
 41 42  1  1
 43 42  1  1
 43 44  1  0
 44 45  1  0
 45 46  1  0
 45 47  1  0
 45 48  1  0
 48 49  1  0
 49 50  1  6
 49 51  1  0
 51 52  1  1
 48 53  1  6
 53 54  1  0
 53 55  1  0
 28 56  1  0
 56 57  1  0
 56 58  2  0
 23 59  1  1
 13 60  2  0
 60  1  1  0
 60  7  1  0
 34 17  1  0
 41 37  1  0
 51 43  1  0
 58 24  1  0
 41 30  1  0
 36 31  1  0
M  CHG  1  59   1
M  END
$$$$
