
     RDKit          3D

 60 67  0  0  0  0  0  0  0  0999 V2000
  128.5424  142.8642  128.3980 N   0  0  0  0  0  0  0  0  0  0  0  0
  128.6172  144.3009  128.2730 C   0  0  0  0  0  0  0  0  0  0  0  0
  127.5753  144.9667  128.3847 O   0  0  0  0  0  0  0  0  0  0  0  0
  129.9307  144.8663  128.0217 C   0  0  0  0  0  0  0  0  0  0  0  0
  130.0593  146.1765  127.8981 C   0  0  0  0  0  0  0  0  0  0  0  0
  131.0370  144.0411  127.9129 O   0  0  0  0  0  0  0  0  0  0  0  0
  130.9556  142.6600  128.0343 C   0  0  0  0  0  0  0  0  0  0  0  0
  132.0803  141.8739  127.9186 C   0  0  0  0  0  0  0  0  0  0  0  0
  132.0032  140.5104  128.0380 C   0  0  0  0  0  0  0  0  0  0  0  0
  133.1279  139.7085  127.9247 O   0  0  0  0  0  0  0  0  0  0  0  0
  134.1697  139.7703  128.8744 C   0  0  0  0  0  0  0  0  0  0  0  0
  130.7727  139.9753  128.2738 C   0  0  0  0  0  0  0  0  0  0  0  0
  129.5957  140.6993  128.4025 C   0  0  0  0  0  0  0  0  0  0  0  0
  128.3516  139.9946  128.6640 C   0  0  0  0  0  0  0  0  0  0  0  0
  127.9019  139.2811  127.6824 O   0  0  0  0  0  0  0  0  0  0  0  0
  127.5948  139.9728  129.7790 O   0  0  0  0  0  0  0  0  0  0  0  0
  127.5540  138.9472  130.7116 C   0  0  1  0  0  0  0  0  0  0  0  0
  128.4722  137.7467  130.3214 C   0  0  0  0  0  0  0  0  0  0  0  0
  128.8630  137.0008  131.3822 O   0  0  0  0  0  0  0  0  0  0  0  0
  128.8121  135.7680  131.8722 C   0  0  0  0  0  0  0  0  0  0  0  0
  127.8621  135.2566  132.5739 O   0  0  0  0  0  0  0  0  0  0  0  0
  129.9323  134.8142  131.6302 C   0  0  0  0  0  0  0  0  0  0  0  0
  130.8630  134.6689  132.8151 C   0  0  1  0  0  0  0  0  0  0  0  0
  130.7970  135.8791  133.7517 C   0  0  0  0  0  0  0  0  0  0  0  0
  129.8492  135.9951  134.7407 C   0  0  0  0  0  0  0  0  0  0  0  0
  129.7475  137.1584  135.5714 C   0  0  0  0  0  0  0  0  0  0  0  0
  128.6657  136.9505  136.5221 O   0  0  0  0  0  0  0  0  0  0  0  0
  130.5832  138.2142  135.4182 C   0  0  0  0  0  0  0  0  0  0  0  0
  130.4732  139.3840  136.2073 O   0  0  0  0  0  0  0  0  0  0  0  0
  129.4009  140.3450  136.0052 C   0  0  2  0  0  0  0  0  0  0  0  0
  128.6229  139.9322  134.8248 C   0  0  0  0  0  0  0  0  0  0  0  0
  129.2954  140.4756  133.7421 C   0  0  0  0  0  0  0  0  0  0  0  0
  128.9235  140.1727  132.4068 C   0  0  0  0  0  0  0  0  0  0  0  0
  127.8734  139.3295  132.1565 C   0  0  0  0  0  0  0  0  0  0  0  0
  127.1923  138.7923  133.2307 C   0  0  0  0  0  0  0  0  0  0  0  0
  127.6047  139.1239  134.5509 C   0  0  0  0  0  0  0  0  0  0  0  0
  130.3127  141.3922  134.2483 C   0  0  0  0  0  0  0  0  0  0  0  0
  131.4039  142.0781  134.1312 C   0  0  0  0  0  0  0  0  0  0  0  0
  131.6808  142.8143  135.3799 C   0  0  0  0  0  0  0  0  0  0  0  0
  130.6943  142.5617  136.2645 C   0  0  0  0  0  0  0  0  0  0  0  0
  129.7704  141.7070  135.6274 C   0  0  2  0  0  0  0  0  0  0  0  0
  128.4969  142.3448  135.4540 O   0  0  0  0  0  0  0  0  0  0  0  0
  128.2015  143.2769  136.4076 C   0  0  2  0  0  0  0  0  0  0  0  0
  128.0427  142.5896  137.6064 O   0  0  0  0  0  0  0  0  0  0  0  0
  127.3566  143.2745  138.5988 C   0  0  0  0  0  0  0  0  0  0  0  0
  127.9560  144.5740  138.9405 C   0  0  0  0  0  0  0  0  0  0  0  0
  127.5184  142.3836  139.8490 C   0  0  0  0  0  0  0  0  0  0  0  0
  125.9073  143.2706  138.2018 C   0  0  2  0  0  0  0  0  0  0  0  0
  125.7805  143.2976  136.7210 C   0  0  1  0  0  0  0  0  0  0  0  0
  124.6266  143.8233  136.2039 O   0  0  0  0  0  0  0  0  0  0  0  0
  126.9288  143.9765  135.9967 C   0  0  1  0  0  0  0  0  0  0  0  0
  126.9584  145.3391  136.1311 O   0  0  0  0  0  0  0  0  0  0  0  0
  125.1143  144.3008  138.8227 N   0  0  0  0  0  0  0  0  0  0  0  0
  124.6683  143.9435  140.1520 C   0  0  0  0  0  0  0  0  0  0  0  0
  123.8791  144.4038  138.0256 C   0  0  0  0  0  0  0  0  0  0  0  0
  131.5289  138.0920  134.4449 C   0  0  0  0  0  0  0  0  0  0  0  0
  132.9389  139.1910  134.0844 Cl  0  0  0  0  0  0  0  0  0  0  0  0
  131.6557  136.9475  133.6018 C   0  0  0  0  0  0  0  0  0  0  0  0
  130.6258  133.3896  133.4711 N   0  0  0  0  0  4  0  0  0  0  0  0
  129.7013  142.0806  128.2774 C   0  0  0  0  0  0  0  0  0  0  0  0
  1  2  1  0
  2  3  2  0
  2  4  1  0
  4  5  2  0
  4  6  1  0
  6  7  1  0
  7  8  2  0
  8  9  1  0
  9 10  1  0
 10 11  1  0
  9 12  2  0
 12 13  1  0
 13 14  1  0
 14 15  2  0
 14 16  1  0
 17 16  1  6
 17 18  1  0
 18 19  1  0
 19 20  1  0
 20 21  2  0
 20 22  1  0
 22 23  1  0
 23 24  1  0
 24 25  2  0
 25 26  1  0
 26 27  1  0
 26 28  2  0
 28 29  1  0
 30 29  1  6
 30 31  1  0
 31 32  2  0
 32 33  1  0
 33 34  2  0
 34 35  1  0
 35 36  2  0
 32 37  1  0
 37 38  2  0
 38 39  1  0
 39 40  2  0
 40 41  1  0
 41 42  1  6
 43 42  1  6
 43 44  1  0
 44 45  1  0
 45 46  1  0
 45 47  1  0
 45 48  1  0
 48 49  1  0
 49 50  1  1
 49 51  1  0
 51 52  1  1
 48 53  1  1
 53 54  1  0
 53 55  1  0
 28 56  1  0
 56 57  1  0
 56 58  2  0
 23 59  1  1
 13 60  2  0
 60  1  1  0
 60  7  1  0
 34 17  1  0
 41 37  1  0
 51 43  1  0
 58 24  1  0
 41 30  1  0
 36 31  1  0
M  CHG  1  59   1
M  END
$$$$
