
     RDKit          3D

 32 36  0  0  0  0  0  0  0  0999 V2000
  130.0391  139.6090  131.1897 C   0  0  2  0  0  0  0  0  0  0  0  0
  129.4228  138.5872  132.0997 C   0  0  0  0  0  0  0  0  0  0  0  0
  130.3043  137.7969  132.9485 C   0  0  0  0  0  0  0  0  0  0  0  0
  131.7275  138.1636  133.0982 C   0  0  2  0  0  0  0  0  0  0  0  0
  132.0459  138.5284  134.5569 C   0  0  0  0  0  0  0  0  0  0  0  0
  132.1769  139.2655  132.1884 C   0  0  2  0  0  0  0  0  0  0  0  0
  133.5466  139.7838  132.5251 C   0  0  0  0  0  0  0  0  0  0  0  0
  134.4809  138.5955  132.2822 C   0  0  0  0  0  0  0  0  0  0  0  0
  134.0481  137.4003  133.0636 C   0  0  0  0  0  0  0  0  0  0  0  0
  134.8865  136.8416  133.8836 C   0  0  0  0  0  0  0  0  0  0  0  0
  136.3064  137.3065  134.1287 C   0  0  0  0  0  0  0  0  0  0  0  0
  137.2644  136.2848  133.4991 C   0  0  0  0  0  0  0  0  0  0  0  0
  138.3845  136.0710  134.4698 C   0  0  0  0  0  0  0  0  0  0  0  0
  137.7667  136.7432  132.1542 C   0  0  0  0  0  0  0  0  0  0  0  0
  136.5136  134.9769  133.2895 C   0  0  0  0  0  0  0  0  0  0  0  0
  135.7135  134.6808  134.5411 C   0  0  0  0  0  0  0  0  0  0  0  0
  134.5172  135.6350  134.6780 C   0  0  1  0  0  0  0  0  0  0  0  0
  134.4054  135.9503  136.1680 C   0  0  0  0  0  0  0  0  0  0  0  0
  133.3368  134.9354  134.1584 C   0  0  1  0  0  0  0  0  0  0  0  0
  132.8385  134.0910  135.1656 O   0  0  0  0  0  0  0  0  0  0  0  0
  132.2033  135.8427  133.7527 C   0  0  0  0  0  0  0  0  0  0  0  0
  132.6495  136.9431  132.8309 C   0  0  1  0  0  0  0  0  0  0  0  0
  132.4855  136.4683  131.4173 C   0  0  0  0  0  0  0  0  0  0  0  0
  131.1433  140.3232  131.9187 C   0  0  2  0  0  0  0  0  0  0  0  0
  130.6699  141.0569  133.1388 C   0  0  0  0  0  0  0  0  0  0  0  0
  131.7340  141.3452  130.9940 C   0  0  0  0  0  0  0  0  0  0  0  0
  130.7339  142.3053  130.4611 C   0  0  0  0  0  0  0  0  0  0  0  0
  129.4538  141.7466  129.9747 C   0  0  2  0  0  0  0  0  0  0  0  0
  128.4496  142.7066  130.2639 O   0  0  0  0  0  0  0  0  0  0  0  0
  129.0305  140.4328  130.5008 C   0  0  0  0  0  0  0  0  0  0  0  0
  128.5422  139.6075  129.2832 C   0  0  0  0  0  0  0  0  0  0  0  0
  127.7204  140.5736  131.2950 C   0  0  0  0  0  0  0  0  0  0  0  0
  1  2  1  1
  2  3  1  0
  3  4  1  0
  4  5  1  1
  4  6  1  0
  6  7  1  1
  7  8  1  0
  8  9  1  0
  9 10  2  0
 10 11  1  0
 11 12  1  0
 12 13  1  0
 12 14  1  0
 12 15  1  0
 15 16  1  0
 16 17  1  0
 17 18  1  1
 17 19  1  0
 19 20  1  1
 19 21  1  0
 21 22  1  0
 22 23  1  6
  6 24  1  0
 24 25  1  1
 24 26  1  0
 26 27  1  0
 27 28  1  0
 28 29  1  1
 28 30  1  0
 30 31  1  0
 30 32  1  0
 24  1  1  0
 30  1  1  0
 22  4  1  0
 22  9  1  0
 17 10  1  0
M  END
$$$$
