
     RDKit          3D

 32 36  0  0  0  0  0  0  0  0999 V2000
  112.3267  146.9552  157.8920 C   0  0  2  0  0  0  0  0  0  0  0  0
  112.6893  147.5885  159.2032 C   0  0  0  0  0  0  0  0  0  0  0  0
  114.0988  147.6824  159.5588 C   0  0  0  0  0  0  0  0  0  0  0  0
  115.1453  147.4000  158.5551 C   0  0  2  0  0  0  0  0  0  0  0  0
  116.0011  148.6495  158.2934 C   0  0  0  0  0  0  0  0  0  0  0  0
  114.6236  146.8599  157.2589 C   0  0  2  0  0  0  0  0  0  0  0  0
  115.6677  146.8122  156.1794 C   0  0  0  0  0  0  0  0  0  0  0  0
  116.7092  145.8138  156.6918 C   0  0  0  0  0  0  0  0  0  0  0  0
  117.2130  146.2044  158.0409 C   0  0  0  0  0  0  0  0  0  0  0  0
  118.4887  146.3750  158.2161 C   0  0  0  0  0  0  0  0  0  0  0  0
  119.5450  146.2107  157.1438 C   0  0  0  0  0  0  0  0  0  0  0  0
  120.3463  144.9364  157.4468 C   0  0  0  0  0  0  0  0  0  0  0  0
  121.7902  145.2536  157.2081 C   0  0  0  0  0  0  0  0  0  0  0  0
  119.8819  143.7713  156.6113 C   0  0  0  0  0  0  0  0  0  0  0  0
  120.1397  144.5662  158.9092 C   0  0  0  0  0  0  0  0  0  0  0  0
  120.2652  145.8254  159.7417 C   0  0  0  0  0  0  0  0  0  0  0  0
  119.0526  146.7482  159.5451 C   0  0  1  0  0  0  0  0  0  0  0  0
  119.6084  148.1706  159.5454 C   0  0  0  0  0  0  0  0  0  0  0  0
  118.1294  146.5021  160.6585 C   0  0  1  0  0  0  0  0  0  0  0  0
  118.5676  147.2377  161.7732 O   0  0  0  0  0  0  0  0  0  0  0  0
  116.7066  146.9233  160.3927 C   0  0  0  0  0  0  0  0  0  0  0  0
  116.1768  146.3738  159.0977 C   0  0  1  0  0  0  0  0  0  0  0  0
  115.5046  145.0633  159.3826 C   0  0  0  0  0  0  0  0  0  0  0  0
  113.2921  147.4135  156.8342 C   0  0  2  0  0  0  0  0  0  0  0  0
  113.2747  148.8983  156.6194 C   0  0  0  0  0  0  0  0  0  0  0  0
  112.9020  146.7776  155.5334 C   0  0  0  0  0  0  0  0  0  0  0  0
  111.4984  147.0593  155.1376 C   0  0  0  0  0  0  0  0  0  0  0  0
  110.4626  146.9311  156.1853 C   0  0  2  0  0  0  0  0  0  0  0  0
  109.4747  147.9119  155.9094 O   0  0  0  0  0  0  0  0  0  0  0  0
  110.8875  147.0579  157.5943 C   0  0  0  0  0  0  0  0  0  0  0  0
  110.1928  145.9091  158.3689 C   0  0  0  0  0  0  0  0  0  0  0  0
  110.2221  148.2840  158.2434 C   0  0  0  0  0  0  0  0  0  0  0  0
  1  2  1  1
  2  3  1  0
  3  4  1  0
  4  5  1  6
  4  6  1  0
  6  7  1  6
  7  8  1  0
  8  9  1  0
  9 10  2  0
 10 11  1  0
 11 12  1  0
 12 13  1  0
 12 14  1  0
 12 15  1  0
 15 16  1  0
 16 17  1  0
 17 18  1  6
 17 19  1  0
 19 20  1  1
 19 21  1  0
 21 22  1  0
 22 23  1  1
  6 24  1  0
 24 25  1  6
 24 26  1  0
 26 27  1  0
 27 28  1  0
 28 29  1  6
 28 30  1  0
 30 31  1  0
 30 32  1  0
 24  1  1  0
 30  1  1  0
 22  4  1  0
 22  9  1  0
 17 10  1  0
M  END
$$$$
