
     RDKit          3D

 32 36  0  0  0  0  0  0  0  0999 V2000
  115.6908  146.8406  159.4106 C   0  0  2  0  0  0  0  0  0  0  0  0
  115.1273  145.6425  158.7043 C   0  0  0  0  0  0  0  0  0  0  0  0
  114.3341  145.8591  157.5018 C   0  0  0  0  0  0  0  0  0  0  0  0
  114.3002  147.1871  156.8556 C   0  0  2  0  0  0  0  0  0  0  0  0
  114.8830  147.1173  155.4352 C   0  0  0  0  0  0  0  0  0  0  0  0
  114.9861  148.2671  157.6346 C   0  0  2  0  0  0  0  0  0  0  0  0
  115.1515  149.5403  156.8539 C   0  0  0  0  0  0  0  0  0  0  0  0
  113.7221  150.0205  156.5889 C   0  0  0  0  0  0  0  0  0  0  0  0
  112.9150  148.9643  155.9111 C   0  0  0  0  0  0  0  0  0  0  0  0
  112.3429  149.2342  154.7765 C   0  0  0  0  0  0  0  0  0  0  0  0
  112.4231  150.5628  154.0547 C   0  0  0  0  0  0  0  0  0  0  0  0
  111.0530  151.2489  154.1527 C   0  0  0  0  0  0  0  0  0  0  0  0
  110.7552  151.8380  152.8085 C   0  0  0  0  0  0  0  0  0  0  0  0
  111.0254  152.2911  155.2411 C   0  0  0  0  0  0  0  0  0  0  0  0
  110.0046  150.1986  154.4937 C   0  0  0  0  0  0  0  0  0  0  0  0
  110.2473  148.9831  153.6230 C   0  0  0  0  0  0  0  0  0  0  0  0
  111.5100  148.2254  154.0611 C   0  0  1  0  0  0  0  0  0  0  0  0
  112.1779  147.7507  152.7724 C   0  0  0  0  0  0  0  0  0  0  0  0
  111.0797  147.1141  154.9170 C   0  0  1  0  0  0  0  0  0  0  0  0
  110.6694  146.0501  154.0952 O   0  0  0  0  0  0  0  0  0  0  0  0
  112.1559  146.5727  155.8231 C   0  0  0  0  0  0  0  0  0  0  0  0
  112.8387  147.6532  156.6141 C   0  0  1  0  0  0  0  0  0  0  0  0
  112.1194  147.8049  157.9219 C   0  0  0  0  0  0  0  0  0  0  0  0
  116.2048  147.8216  158.3937 C   0  0  2  0  0  0  0  0  0  0  0  0
  117.3036  147.2656  157.5367 C   0  0  0  0  0  0  0  0  0  0  0  0
  116.7725  149.0022  159.1234 C   0  0  0  0  0  0  0  0  0  0  0  0
  117.8303  148.6379  160.1003 C   0  0  0  0  0  0  0  0  0  0  0  0
  117.5672  147.4780  160.9793 C   0  0  2  0  0  0  0  0  0  0  0  0
  118.8152  146.8409  161.2043 O   0  0  0  0  0  0  0  0  0  0  0  0
  116.5884  146.4720  160.5191 C   0  0  0  0  0  0  0  0  0  0  0  0
  115.6816  146.1517  161.7345 C   0  0  0  0  0  0  0  0  0  0  0  0
  117.2788  145.1127  160.3112 C   0  0  0  0  0  0  0  0  0  0  0  0
  1  2  1  6
  2  3  1  0
  3  4  1  0
  4  5  1  6
  4  6  1  0
  6  7  1  6
  7  8  1  0
  8  9  1  0
  9 10  2  0
 10 11  1  0
 11 12  1  0
 12 13  1  0
 12 14  1  0
 12 15  1  0
 15 16  1  0
 16 17  1  0
 17 18  1  6
 17 19  1  0
 19 20  1  6
 19 21  1  0
 21 22  1  0
 22 23  1  1
  6 24  1  0
 24 25  1  6
 24 26  1  0
 26 27  1  0
 27 28  1  0
 28 29  1  6
 28 30  1  0
 30 31  1  0
 30 32  1  0
 24  1  1  0
 30  1  1  0
 22  4  1  0
 22  9  1  0
 17 10  1  0
M  END
$$$$
