
     RDKit          3D

 32 36  0  0  0  0  0  0  0  0999 V2000
  161.8640  147.1270  127.1920 C   0  0  2  0  0  0  0  0  0  0  0  0
  161.6789  148.2908  128.1210 C   0  0  0  0  0  0  0  0  0  0  0  0
  162.7007  149.3289  128.1402 C   0  0  0  0  0  0  0  0  0  0  0  0
  163.7501  149.3668  127.1010 C   0  0  2  0  0  0  0  0  0  0  0  0
  163.6551  150.6609  126.2773 C   0  0  0  0  0  0  0  0  0  0  0  0
  163.7521  148.1805  126.1864 C   0  0  2  0  0  0  0  0  0  0  0  0
  164.6578  148.3545  125.0001 C   0  0  0  0  0  0  0  0  0  0  0  0
  166.0633  148.4594  125.5981 C   0  0  0  0  0  0  0  0  0  0  0  0
  166.1373  149.5492  126.6145 C   0  0  0  0  0  0  0  0  0  0  0  0
  167.0171  150.4936  126.4682 C   0  0  0  0  0  0  0  0  0  0  0  0
  168.0045  150.5950  125.3248 C   0  0  0  0  0  0  0  0  0  0  0  0
  169.4061  150.2818  125.8681 C   0  0  0  0  0  0  0  0  0  0  0  0
  170.3492  151.2722  125.2581 C   0  0  0  0  0  0  0  0  0  0  0  0
  169.8159  148.8616  125.5742 C   0  0  0  0  0  0  0  0  0  0  0  0
  169.3927  150.4539  127.3809 C   0  0  0  0  0  0  0  0  0  0  0  0
  168.6599  151.7387  127.7077 C   0  0  0  0  0  0  0  0  0  0  0  0
  167.1500  151.5991  127.4599 C   0  0  1  0  0  0  0  0  0  0  0  0
  166.6985  152.9377  126.8800 C   0  0  0  0  0  0  0  0  0  0  0  0
  166.5197  151.3013  128.7509 C   0  0  1  0  0  0  0  0  0  0  0  0
  166.3410  152.5076  129.4498 O   0  0  0  0  0  0  0  0  0  0  0  0
  165.1618  150.6548  128.6468 C   0  0  0  0  0  0  0  0  0  0  0  0
  165.1633  149.4575  127.7380 C   0  0  1  0  0  0  0  0  0  0  0  0
  165.4383  148.2378  128.5671 C   0  0  0  0  0  0  0  0  0  0  0  0
  162.3920  147.6215  125.8738 C   0  0  2  0  0  0  0  0  0  0  0  0
  161.4664  148.5824  125.1877 C   0  0  0  0  0  0  0  0  0  0  0  0
  162.5568  146.4435  124.9608 C   0  0  0  0  0  0  0  0  0  0  0  0
  161.3081  145.6600  124.7790 C   0  0  0  0  0  0  0  0  0  0  0  0
  160.5202  145.3540  125.9925 C   0  0  2  0  0  0  0  0  0  0  0  0
  159.1541  145.3586  125.6081 O   0  0  0  0  0  0  0  0  0  0  0  0
  160.6934  146.2328  127.1671 C   0  0  0  0  0  0  0  0  0  0  0  0
  160.8225  145.3011  128.3990 C   0  0  0  0  0  0  0  0  0  0  0  0
  159.3742  146.9551  127.4916 C   0  0  0  0  0  0  0  0  0  0  0  0
  1  2  1  1
  2  3  1  0
  3  4  1  0
  4  5  1  6
  4  6  1  0
  6  7  1  6
  7  8  1  0
  8  9  1  0
  9 10  2  0
 10 11  1  0
 11 12  1  0
 12 13  1  0
 12 14  1  0
 12 15  1  0
 15 16  1  0
 16 17  1  0
 17 18  1  6
 17 19  1  0
 19 20  1  6
 19 21  1  0
 21 22  1  0
 22 23  1  1
  6 24  1  0
 24 25  1  6
 24 26  1  0
 26 27  1  0
 27 28  1  0
 28 29  1  6
 28 30  1  0
 30 31  1  0
 30 32  1  0
 24  1  1  0
 30  1  1  0
 22  4  1  0
 22  9  1  0
 17 10  1  0
M  END
$$$$
