
     RDKit          3D

 32 36  0  0  0  0  0  0  0  0999 V2000
  218.6384  158.6662  144.6360 C   0  0  2  0  0  0  0  0  0  0  0  0
  219.9481  157.9475  144.7771 C   0  0  0  0  0  0  0  0  0  0  0  0
  219.9304  156.4954  144.8925 C   0  0  0  0  0  0  0  0  0  0  0  0
  218.6916  155.7372  144.6222 C   0  0  2  0  0  0  0  0  0  0  0  0
  218.8810  154.7923  143.4250 C   0  0  0  0  0  0  0  0  0  0  0  0
  217.4815  156.5937  144.4080 C   0  0  2  0  0  0  0  0  0  0  0  0
  216.2977  155.8215  143.8978 C   0  0  0  0  0  0  0  0  0  0  0  0
  215.9582  154.8433  145.0256 C   0  0  0  0  0  0  0  0  0  0  0  0
  217.1420  154.0136  145.3950 C   0  0  0  0  0  0  0  0  0  0  0  0
  217.0473  152.7189  145.3501 C   0  0  0  0  0  0  0  0  0  0  0  0
  215.8083  151.9495  144.9435 C   0  0  0  0  0  0  0  0  0  0  0  0
  215.2186  151.2867  146.1967 C   0  0  0  0  0  0  0  0  0  0  0  0
  214.8116  149.8975  145.8134 C   0  0  0  0  0  0  0  0  0  0  0  0
  214.0631  152.0761  146.7563 C   0  0  0  0  0  0  0  0  0  0  0  0
  216.2973  151.2252  147.2696 C   0  0  0  0  0  0  0  0  0  0  0  0
  217.5836  150.7511  146.6253 C   0  0  0  0  0  0  0  0  0  0  0  0
  218.1905  151.8377  145.7244 C   0  0  1  0  0  0  0  0  0  0  0  0
  218.7596  151.1029  144.5127 C   0  0  0  0  0  0  0  0  0  0  0  0
  219.2247  152.5266  146.5045 C   0  0  1  0  0  0  0  0  0  0  0  0
  220.4036  151.7625  146.4567 O   0  0  0  0  0  0  0  0  0  0  0  0
  219.5774  153.9008  145.9950 C   0  0  0  0  0  0  0  0  0  0  0  0
  218.3656  154.7662  145.7894 C   0  0  1  0  0  0  0  0  0  0  0  0
  218.1182  155.5371  147.0523 C   0  0  0  0  0  0  0  0  0  0  0  0
  217.7455  157.8953  143.7037 C   0  0  2  0  0  0  0  0  0  0  0  0
  218.3136  157.7521  142.3225 C   0  0  0  0  0  0  0  0  0  0  0  0
  216.4501  158.6387  143.5701 C   0  0  0  0  0  0  0  0  0  0  0  0
  216.6205  160.0415  143.1127 C   0  0  0  0  0  0  0  0  0  0  0  0
  217.6879  160.8370  143.7570 C   0  0  2  0  0  0  0  0  0  0  0  0
  218.2010  161.7151  142.7673 O   0  0  0  0  0  0  0  0  0  0  0  0
  218.8098  160.1073  144.3823 C   0  0  0  0  0  0  0  0  0  0  0  0
  219.0543  160.7729  145.7605 C   0  0  0  0  0  0  0  0  0  0  0  0
  220.1291  160.4418  143.6649 C   0  0  0  0  0  0  0  0  0  0  0  0
  1  2  1  6
  2  3  1  0
  3  4  1  0
  4  5  1  6
  4  6  1  0
  6  7  1  6
  7  8  1  0
  8  9  1  0
  9 10  2  0
 10 11  1  0
 11 12  1  0
 12 13  1  0
 12 14  1  0
 12 15  1  0
 15 16  1  0
 16 17  1  0
 17 18  1  6
 17 19  1  0
 19 20  1  6
 19 21  1  0
 21 22  1  0
 22 23  1  1
  6 24  1  0
 24 25  1  6
 24 26  1  0
 26 27  1  0
 27 28  1  0
 28 29  1  6
 28 30  1  0
 30 31  1  0
 30 32  1  0
 24  1  1  0
 30  1  1  0
 22  4  1  0
 22  9  1  0
 17 10  1  0
M  END
$$$$
