
     RDKit          3D

 32 36  0  0  0  0  0  0  0  0999 V2000
  190.9768  175.7612  127.5818 C   0  0  2  0  0  0  0  0  0  0  0  0
  190.4745  175.5334  126.1862 C   0  0  0  0  0  0  0  0  0  0  0  0
  189.2818  176.2503  125.7555 C   0  0  0  0  0  0  0  0  0  0  0  0
  188.7353  177.3541  126.5714 C   0  0  2  0  0  0  0  0  0  0  0  0
  188.7807  178.6798  125.7952 C   0  0  0  0  0  0  0  0  0  0  0  0
  189.4003  177.5211  127.9032 C   0  0  2  0  0  0  0  0  0  0  0  0
  188.9999  178.7879  128.6052 C   0  0  0  0  0  0  0  0  0  0  0  0
  187.5010  178.6256  128.8721 C   0  0  0  0  0  0  0  0  0  0  0  0
  186.7563  178.3398  127.6111 C   0  0  0  0  0  0  0  0  0  0  0  0
  185.7772  179.1191  127.2628 C   0  0  0  0  0  0  0  0  0  0  0  0
  185.3080  180.3298  128.0416 C   0  0  0  0  0  0  0  0  0  0  0  0
  183.9464  180.0010  128.6708 C   0  0  0  0  0  0  0  0  0  0  0  0
  183.0740  181.2052  128.4933 C   0  0  0  0  0  0  0  0  0  0  0  0
  184.0789  179.6124  130.1208 C   0  0  0  0  0  0  0  0  0  0  0  0
  183.3397  178.8172  127.9299 C   0  0  0  0  0  0  0  0  0  0  0  0
  183.5172  179.0440  126.4428 C   0  0  0  0  0  0  0  0  0  0  0  0
  184.9855  178.8740  126.0233 C   0  0  1  0  0  0  0  0  0  0  0  0
  185.2423  179.9454  124.9659 C   0  0  0  0  0  0  0  0  0  0  0  0
  185.1360  177.5128  125.4967 C   0  0  1  0  0  0  0  0  0  0  0  0
  184.7036  177.5008  124.1593 O   0  0  0  0  0  0  0  0  0  0  0  0
  186.5525  176.9969  125.4994 C   0  0  0  0  0  0  0  0  0  0  0  0
  187.2187  177.1535  126.8377 C   0  0  1  0  0  0  0  0  0  0  0  0
  186.9918  175.8974  127.6261 C   0  0  0  0  0  0  0  0  0  0  0  0
  190.8739  177.2238  127.9152 C   0  0  2  0  0  0  0  0  0  0  0  0
  191.6928  178.0967  127.0106 C   0  0  0  0  0  0  0  0  0  0  0  0
  191.3919  177.4269  129.3076 C   0  0  0  0  0  0  0  0  0  0  0  0
  192.7782  176.9290  129.4988 C   0  0  0  0  0  0  0  0  0  0  0  0
  193.0997  175.5966  128.9434 C   0  0  2  0  0  0  0  0  0  0  0  0
  194.4533  175.6432  128.5195 O   0  0  0  0  0  0  0  0  0  0  0  0
  192.2645  175.0917  127.8346 C   0  0  0  0  0  0  0  0  0  0  0  0
  191.9366  173.6140  128.1678 C   0  0  0  0  0  0  0  0  0  0  0  0
  193.1143  174.9167  126.5640 C   0  0  0  0  0  0  0  0  0  0  0  0
  1  2  1  6
  2  3  1  0
  3  4  1  0
  4  5  1  6
  4  6  1  0
  6  7  1  6
  7  8  1  0
  8  9  1  0
  9 10  2  0
 10 11  1  0
 11 12  1  0
 12 13  1  0
 12 14  1  0
 12 15  1  0
 15 16  1  0
 16 17  1  0
 17 18  1  6
 17 19  1  0
 19 20  1  6
 19 21  1  0
 21 22  1  0
 22 23  1  1
  6 24  1  0
 24 25  1  6
 24 26  1  0
 26 27  1  0
 27 28  1  0
 28 29  1  6
 28 30  1  0
 30 31  1  0
 30 32  1  0
 24  1  1  0
 30  1  1  0
 22  4  1  0
 22  9  1  0
 17 10  1  0
M  END
$$$$
