
     RDKit          3D

 32 36  0  0  0  0  0  0  0  0999 V2000
  106.9976  167.7333  158.2703 C   0  0  2  0  0  0  0  0  0  0  0  0
  106.9276  168.3273  156.8940 C   0  0  0  0  0  0  0  0  0  0  0  0
  106.8082  167.4243  155.7571 C   0  0  0  0  0  0  0  0  0  0  0  0
  106.5078  165.9929  155.9652 C   0  0  2  0  0  0  0  0  0  0  0  0
  105.1634  165.6188  155.3211 C   0  0  0  0  0  0  0  0  0  0  0  0
  106.5210  165.5648  157.4006 C   0  0  2  0  0  0  0  0  0  0  0  0
  105.9781  164.1788  157.6055 C   0  0  0  0  0  0  0  0  0  0  0  0
  106.9546  163.2661  156.8587 C   0  0  0  0  0  0  0  0  0  0  0  0
  107.1003  163.6831  155.4335 C   0  0  0  0  0  0  0  0  0  0  0  0
  106.8541  162.8218  154.4928 C   0  0  0  0  0  0  0  0  0  0  0  0
  106.4175  161.3893  154.7157 C   0  0  0  0  0  0  0  0  0  0  0  0
  107.5861  160.4651  154.3441 C   0  0  0  0  0  0  0  0  0  0  0  0
  107.0136  159.3133  153.5772 C   0  0  0  0  0  0  0  0  0  0  0  0
  108.3462  160.0064  155.5619 C   0  0  0  0  0  0  0  0  0  0  0  0
  108.5558  161.2365  153.4590 C   0  0  0  0  0  0  0  0  0  0  0  0
  107.7538  161.9943  152.4213 C   0  0  0  0  0  0  0  0  0  0  0  0
  106.9993  163.1750  153.0515 C   0  0  1  0  0  0  0  0  0  0  0  0
  105.6476  163.2302  152.3429 C   0  0  0  0  0  0  0  0  0  0  0  0
  107.8049  164.3805  152.8263 C   0  0  1  0  0  0  0  0  0  0  0  0
  107.5510  164.8512  151.5264 O   0  0  0  0  0  0  0  0  0  0  0  0
  107.5000  165.5182  153.7671 C   0  0  0  0  0  0  0  0  0  0  0  0
  107.5232  165.0938  155.2090 C   0  0  1  0  0  0  0  0  0  0  0  0
  108.9083  165.3132  155.7419 C   0  0  0  0  0  0  0  0  0  0  0  0
  106.0189  166.5964  158.3721 C   0  0  2  0  0  0  0  0  0  0  0  0
  104.5959  167.0182  158.1526 C   0  0  0  0  0  0  0  0  0  0  0  0
  106.0992  166.0285  159.7575 C   0  0  0  0  0  0  0  0  0  0  0  0
  105.8631  167.0370  160.8221 C   0  0  0  0  0  0  0  0  0  0  0  0
  106.5499  168.3394  160.6828 C   0  0  2  0  0  0  0  0  0  0  0  0
  105.6809  169.3226  161.2232 O   0  0  0  0  0  0  0  0  0  0  0  0
  106.9682  168.7572  159.3292 C   0  0  0  0  0  0  0  0  0  0  0  0
  108.4148  169.2973  159.4623 C   0  0  0  0  0  0  0  0  0  0  0  0
  106.2223  170.0367  158.9120 C   0  0  0  0  0  0  0  0  0  0  0  0
  1  2  1  6
  2  3  1  0
  3  4  1  0
  4  5  1  6
  4  6  1  0
  6  7  1  6
  7  8  1  0
  8  9  1  0
  9 10  2  0
 10 11  1  0
 11 12  1  0
 12 13  1  0
 12 14  1  0
 12 15  1  0
 15 16  1  0
 16 17  1  0
 17 18  1  6
 17 19  1  0
 19 20  1  6
 19 21  1  0
 21 22  1  0
 22 23  1  1
  6 24  1  0
 24 25  1  6
 24 26  1  0
 26 27  1  0
 27 28  1  0
 28 29  1  6
 28 30  1  0
 30 31  1  0
 30 32  1  0
 24  1  1  0
 30  1  1  0
 22  4  1  0
 22  9  1  0
 17 10  1  0
M  END
$$$$
