
     RDKit          3D

 32 36  0  0  0  0  0  0  0  0999 V2000
  134.7575  137.1511  132.6425 C   0  0  2  0  0  0  0  0  0  0  0  0
  134.5948  138.6422  132.6880 C   0  0  0  0  0  0  0  0  0  0  0  0
  133.3059  139.1844  133.0966 C   0  0  0  0  0  0  0  0  0  0  0  0
  132.2779  138.3059  133.6914 C   0  0  2  0  0  0  0  0  0  0  0  0
  131.9608  138.7359  135.1324 C   0  0  0  0  0  0  0  0  0  0  0  0
  132.6221  136.8484  133.6593 C   0  0  2  0  0  0  0  0  0  0  0  0
  131.6870  136.0055  134.4798 C   0  0  0  0  0  0  0  0  0  0  0  0
  130.3263  136.1578  133.7947 C   0  0  0  0  0  0  0  0  0  0  0  0
  129.9407  137.5942  133.6740 C   0  0  0  0  0  0  0  0  0  0  0  0
  128.8129  137.9924  134.1809 C   0  0  0  0  0  0  0  0  0  0  0  0
  127.8229  137.1063  134.9070 C   0  0  0  0  0  0  0  0  0  0  0  0
  126.5923  136.9194  134.0078 C   0  0  0  0  0  0  0  0  0  0  0  0
  125.3825  137.0366  134.8825 C   0  0  0  0  0  0  0  0  0  0  0  0
  126.6295  135.6034  133.2744 C   0  0  0  0  0  0  0  0  0  0  0  0
  126.5775  138.0283  132.9644 C   0  0  0  0  0  0  0  0  0  0  0  0
  126.8896  139.3387  133.6573 C   0  0  0  0  0  0  0  0  0  0  0  0
  128.3661  139.4111  134.0763 C   0  0  1  0  0  0  0  0  0  0  0  0
  128.3790  140.1105  135.4337 C   0  0  0  0  0  0  0  0  0  0  0  0
  129.0783  140.1705  133.0425 C   0  0  1  0  0  0  0  0  0  0  0  0
  128.8927  141.5421  133.2881 O   0  0  0  0  0  0  0  0  0  0  0  0
  130.5666  139.9331  133.0094 C   0  0  0  0  0  0  0  0  0  0  0  0
  130.9147  138.4714  132.9663 C   0  0  1  0  0  0  0  0  0  0  0  0
  131.0378  138.0592  131.5291 C   0  0  0  0  0  0  0  0  0  0  0  0
  134.0824  136.5401  133.8391 C   0  0  2  0  0  0  0  0  0  0  0  0
  134.6602  137.0007  135.1448 C   0  0  0  0  0  0  0  0  0  0  0  0
  134.2691  135.0535  133.7769 C   0  0  0  0  0  0  0  0  0  0  0  0
  135.6939  134.6417  133.6959 C   0  0  0  0  0  0  0  0  0  0  0  0
  136.5574  135.3800  132.7491 C   0  0  2  0  0  0  0  0  0  0  0  0
  137.8507  135.4371  133.3305 O   0  0  0  0  0  0  0  0  0  0  0  0
  136.1442  136.7430  132.3578 C   0  0  0  0  0  0  0  0  0  0  0  0
  136.3252  136.8341  130.8212 C   0  0  0  0  0  0  0  0  0  0  0  0
  137.1860  137.7721  132.8300 C   0  0  0  0  0  0  0  0  0  0  0  0
  1  2  1  1
  2  3  1  0
  3  4  1  0
  4  5  1  1
  4  6  1  0
  6  7  1  1
  7  8  1  0
  8  9  1  0
  9 10  2  0
 10 11  1  0
 11 12  1  0
 12 13  1  0
 12 14  1  0
 12 15  1  0
 15 16  1  0
 16 17  1  0
 17 18  1  1
 17 19  1  0
 19 20  1  1
 19 21  1  0
 21 22  1  0
 22 23  1  6
  6 24  1  0
 24 25  1  1
 24 26  1  0
 26 27  1  0
 27 28  1  0
 28 29  1  1
 28 30  1  0
 30 31  1  0
 30 32  1  0
 24  1  1  0
 30  1  1  0
 22  4  1  0
 22  9  1  0
 17 10  1  0
M  END
$$$$
