
     RDKit          3D

 32 36  0  0  0  0  0  0  0  0999 V2000
  175.1716  165.0625  111.0168 C   0  0  2  0  0  0  0  0  0  0  0  0
  174.2030  166.1742  110.7378 C   0  0  0  0  0  0  0  0  0  0  0  0
  172.7781  165.8736  110.7710 C   0  0  0  0  0  0  0  0  0  0  0  0
  172.2962  164.5859  111.3114 C   0  0  2  0  0  0  0  0  0  0  0  0
  171.4141  164.8104  112.5499 C   0  0  0  0  0  0  0  0  0  0  0  0
  173.3849  163.6085  111.6326 C   0  0  2  0  0  0  0  0  0  0  0  0
  172.8945  162.4141  112.4012 C   0  0  0  0  0  0  0  0  0  0  0  0
  171.9288  161.7083  111.4455 C   0  0  0  0  0  0  0  0  0  0  0  0
  170.8611  162.6377  110.9736 C   0  0  0  0  0  0  0  0  0  0  0  0
  169.6157  162.3196  111.1610 C   0  0  0  0  0  0  0  0  0  0  0  0
  169.1320  161.0538  111.8366 C   0  0  0  0  0  0  0  0  0  0  0  0
  168.5155  160.1410  110.7669 C   0  0  0  0  0  0  0  0  0  0  0  0
  167.2611  159.5637  111.3464 C   0  0  0  0  0  0  0  0  0  0  0  0
  169.4764  159.0669  110.3261 C   0  0  0  0  0  0  0  0  0  0  0  0
  168.1733  160.9829  109.5453 C   0  0  0  0  0  0  0  0  0  0  0  0
  167.5009  162.2556  110.0169 C   0  0  0  0  0  0  0  0  0  0  0  0
  168.5053  163.1994  110.6959 C   0  0  1  0  0  0  0  0  0  0  0  0
  167.7556  163.8318  111.8664 C   0  0  0  0  0  0  0  0  0  0  0  0
  168.9255  164.1862  109.6948 C   0  0  1  0  0  0  0  0  0  0  0  0
  167.9507  165.1966  109.6267 O   0  0  0  0  0  0  0  0  0  0  0  0
  170.2350  164.8666  110.0021 C   0  0  0  0  0  0  0  0  0  0  0  0
  171.3322  163.8876  110.3142 C   0  0  1  0  0  0  0  0  0  0  0  0
  172.0510  163.5638  109.0378 C   0  0  0  0  0  0  0  0  0  0  0  0
  174.6537  164.2245  112.1527 C   0  0  2  0  0  0  0  0  0  0  0  0
  174.4942  164.9932  113.4313 C   0  0  0  0  0  0  0  0  0  0  0  0
  175.6431  163.1298  112.4197 C   0  0  0  0  0  0  0  0  0  0  0  0
  177.0128  163.6299  112.7025 C   0  0  0  0  0  0  0  0  0  0  0  0
  177.5397  164.6922  111.8187 C   0  0  2  0  0  0  0  0  0  0  0  0
  178.3645  165.5232  112.6207 O   0  0  0  0  0  0  0  0  0  0  0  0
  176.5651  165.5343  111.0956 C   0  0  0  0  0  0  0  0  0  0  0  0
  177.0769  165.6469  109.6371 C   0  0  0  0  0  0  0  0  0  0  0  0
  176.6823  166.9984  111.5538 C   0  0  0  0  0  0  0  0  0  0  0  0
  1  2  1  1
  2  3  1  0
  3  4  1  0
  4  5  1  1
  4  6  1  0
  6  7  1  1
  7  8  1  0
  8  9  1  0
  9 10  2  0
 10 11  1  0
 11 12  1  0
 12 13  1  0
 12 14  1  0
 12 15  1  0
 15 16  1  0
 16 17  1  0
 17 18  1  1
 17 19  1  0
 19 20  1  1
 19 21  1  0
 21 22  1  0
 22 23  1  6
  6 24  1  0
 24 25  1  1
 24 26  1  0
 26 27  1  0
 27 28  1  0
 28 29  1  1
 28 30  1  0
 30 31  1  0
 30 32  1  0
 24  1  1  0
 30  1  1  0
 22  4  1  0
 22  9  1  0
 17 10  1  0
M  END
$$$$
