
     RDKit          3D

 32 36  0  0  0  0  0  0  0  0999 V2000
  185.7550  166.0276  121.0209 C   0  0  2  0  0  0  0  0  0  0  0  0
  185.4382  164.7621  121.7626 C   0  0  0  0  0  0  0  0  0  0  0  0
  186.5317  163.8514  122.0737 C   0  0  0  0  0  0  0  0  0  0  0  0
  187.9352  164.2766  121.8946 C   0  0  2  0  0  0  0  0  0  0  0  0
  188.6799  164.2789  123.2390 C   0  0  0  0  0  0  0  0  0  0  0  0
  188.0932  165.6063  121.2231 C   0  0  2  0  0  0  0  0  0  0  0  0
  189.5024  166.1255  121.2720 C   0  0  0  0  0  0  0  0  0  0  0  0
  190.3158  165.1152  120.4584 C   0  0  0  0  0  0  0  0  0  0  0  0
  190.1346  163.7299  120.9821 C   0  0  0  0  0  0  0  0  0  0  0  0
  191.1792  163.0464  121.3412 C   0  0  0  0  0  0  0  0  0  0  0  0
  192.6086  163.5415  121.2770 C   0  0  0  0  0  0  0  0  0  0  0  0
  193.3285  162.7927  120.1461 C   0  0  0  0  0  0  0  0  0  0  0  0
  194.6884  162.4247  120.6538 C   0  0  0  0  0  0  0  0  0  0  0  0
  193.4035  163.6180  118.8873 C   0  0  0  0  0  0  0  0  0  0  0  0
  192.5449  161.5281  119.8222 C   0  0  0  0  0  0  0  0  0  0  0  0
  192.1584  160.8600  121.1255 C   0  0  0  0  0  0  0  0  0  0  0  0
  191.0624  161.6516  121.8554 C   0  0  1  0  0  0  0  0  0  0  0  0
  191.4062  161.5648  123.3407 C   0  0  0  0  0  0  0  0  0  0  0  0
  189.7778  161.0193  121.5349 C   0  0  1  0  0  0  0  0  0  0  0  0
  189.6034  159.9089  122.3790 O   0  0  0  0  0  0  0  0  0  0  0  0
  188.5780  161.9096  121.7355 C   0  0  0  0  0  0  0  0  0  0  0  0
  188.7293  163.2406  121.0536 C   0  0  1  0  0  0  0  0  0  0  0  0
  188.1450  163.1328  119.6761 C   0  0  0  0  0  0  0  0  0  0  0  0
  187.0301  166.6144  121.5599 C   0  0  2  0  0  0  0  0  0  0  0  0
  186.9493  166.9719  123.0147 C   0  0  0  0  0  0  0  0  0  0  0  0
  187.3181  167.8819  120.8122 C   0  0  0  0  0  0  0  0  0  0  0  0
  186.2072  168.8660  120.8713 C   0  0  0  0  0  0  0  0  0  0  0  0
  184.8381  168.3531  120.6481 C   0  0  2  0  0  0  0  0  0  0  0  0
  183.9712  169.1262  121.4634 O   0  0  0  0  0  0  0  0  0  0  0  0
  184.5885  166.9197  120.9028 C   0  0  0  0  0  0  0  0  0  0  0  0
  183.7529  166.3988  119.7059 C   0  0  0  0  0  0  0  0  0  0  0  0
  183.5793  166.7503  122.0518 C   0  0  0  0  0  0  0  0  0  0  0  0
  1  2  1  1
  2  3  1  0
  3  4  1  0
  4  5  1  1
  4  6  1  0
  6  7  1  1
  7  8  1  0
  8  9  1  0
  9 10  2  0
 10 11  1  0
 11 12  1  0
 12 13  1  0
 12 14  1  0
 12 15  1  0
 15 16  1  0
 16 17  1  0
 17 18  1  1
 17 19  1  0
 19 20  1  1
 19 21  1  0
 21 22  1  0
 22 23  1  6
  6 24  1  0
 24 25  1  1
 24 26  1  0
 26 27  1  0
 27 28  1  0
 28 29  1  1
 28 30  1  0
 30 31  1  0
 30 32  1  0
 24  1  1  0
 30  1  1  0
 22  4  1  0
 22  9  1  0
 17 10  1  0
M  END
$$$$
