
     RDKit          3D

 60 68  0  0  0  0  0  0  0  0999 V2000
  130.1707  134.7462  129.6780 C   0  0  2  0  0  0  0  0  0  0  0  0
  130.2321  134.8750  131.1284 N   0  0  0  0  0  0  0  0  0  0  0  0
  128.9224  135.3211  131.5453 C   0  0  0  0  0  0  0  0  0  0  0  0
  128.6396  136.3795  130.5107 C   0  0  0  0  0  0  0  0  0  0  0  0
  129.4739  136.0073  129.3191 C   0  0  1  0  0  0  0  0  0  0  0  0
  130.3963  137.1282  128.9867 C   0  0  0  0  0  0  0  0  0  0  0  0
  130.5452  137.1730  127.6278 C   0  0  0  0  0  0  0  0  0  0  0  0
  131.3073  138.1376  127.0112 C   0  0  0  0  0  0  0  0  0  0  0  0
  131.9613  139.1057  127.7412 C   0  0  0  0  0  0  0  0  0  0  0  0
  132.7215  140.0654  127.1047 O   0  0  0  0  0  0  0  0  0  0  0  0
  132.8826  140.0258  125.7052 C   0  0  0  0  0  0  0  0  0  0  0  0
  131.8403  139.0949  129.1280 C   0  0  0  0  0  0  0  0  0  0  0  0
  131.0541  138.1000  129.7154 C   0  0  0  0  0  0  0  0  0  0  0  0
  132.4944  140.1090  130.0150 C   0  0  1  0  0  0  0  0  0  0  0  0
  131.4402  141.0177  130.3443 C   0  0  0  0  0  0  0  0  0  0  0  0
  130.2120  140.8600  131.1561 C   0  0  1  0  0  0  0  0  0  0  0  0
  130.1984  139.6793  131.8421 C   0  0  0  0  0  0  0  0  0  0  0  0
  129.8716  139.5022  133.3843 N   0  0  0  0  0  0  0  0  0  0  0  0
  128.8974  140.6909  133.5484 C   0  0  0  0  0  0  0  0  0  0  0  0
  129.2273  141.9605  133.0570 C   0  0  2  0  0  0  0  0  0  0  0  0
  129.9961  142.8058  133.8990 O   0  0  0  0  0  0  0  0  0  0  0  0
  127.8458  142.6852  133.1094 C   0  0  0  0  0  0  0  0  0  0  0  0
  126.8725  141.8064  132.3714 C   0  0  0  0  0  0  0  0  0  0  0  0
  129.7044  142.1811  131.6785 C   0  0  0  0  0  0  0  0  0  0  0  0
  131.1442  140.1291  134.0107 C   0  0  0  0  0  0  0  0  0  0  0  0
  132.2641  140.4547  133.2579 C   0  0  0  0  0  0  0  0  0  0  0  0
  133.0994  139.5500  132.4758 C   0  0  0  0  0  0  0  0  0  0  0  0
  133.1927  139.4131  131.1217 C   0  0  0  0  0  0  0  0  0  0  0  0
  134.1605  138.4608  130.8987 N   0  0  0  0  0  0  0  0  0  0  0  0
  134.6819  137.9846  132.0005 C   0  0  0  0  0  0  0  0  0  0  0  0
  135.6433  137.0520  132.3288 C   0  0  0  0  0  0  0  0  0  0  0  0
  135.9645  136.7756  133.6301 C   0  0  0  0  0  0  0  0  0  0  0  0
  135.3165  137.4409  134.6807 C   0  0  0  0  0  0  0  0  0  0  0  0
  134.3558  138.3731  134.3450 C   0  0  0  0  0  0  0  0  0  0  0  0
  134.0419  138.6423  133.0273 C   0  0  0  0  0  0  0  0  0  0  0  0
  133.5130  140.8233  129.1856 C   0  0  0  0  0  0  0  0  0  0  0  0
  134.1848  140.2591  128.2828 O   0  0  0  0  0  0  0  0  0  0  0  0
  133.7539  142.1416  129.3944 O   0  0  0  0  0  0  0  0  0  0  0  0
  134.5654  142.9984  128.6248 C   0  0  0  0  0  0  0  0  0  0  0  0
  129.8010  136.0264  127.0710 N   0  0  0  0  0  0  0  0  0  0  0  0
  130.2771  135.4357  125.8941 C   0  0  0  0  0  0  0  0  0  0  0  0
  130.7359  134.2833  125.7558 O   0  0  0  0  0  0  0  0  0  0  0  0
  128.7219  135.8717  128.0102 C   0  0  1  0  0  0  0  0  0  0  0  0
  127.8754  134.6841  127.9686 C   0  0  2  0  0  0  0  0  0  0  0  0
  127.0695  134.7741  129.1891 O   0  0  0  0  0  0  0  0  0  0  0  0
  128.5987  133.3812  128.1759 C   0  0  2  0  0  0  0  0  0  0  0  0
  127.5925  132.4482  128.6272 O   0  0  0  0  0  0  0  0  0  0  0  0
  126.5344  132.7690  129.4237 C   0  0  0  0  0  0  0  0  0  0  0  0
  126.3913  132.3657  130.8466 C   0  0  0  0  0  0  0  0  0  0  0  0
  125.5997  133.4550  128.9395 O   0  0  0  0  0  0  0  0  0  0  0  0
  129.7400  133.4629  129.1380 C   0  0  1  0  0  0  0  0  0  0  0  0
  130.9877  132.8095  128.4789 C   0  0  0  0  0  0  0  0  0  0  0  0
  131.0370  131.3359  128.6722 C   0  0  0  0  0  0  0  0  0  0  0  0
  129.4308  132.4815  130.2115 C   0  0  0  0  0  0  0  0  0  0  0  0
  129.8365  132.5403  131.4571 C   0  0  0  0  0  0  0  0  0  0  0  0
  130.6898  133.7118  131.8182 C   0  0  0  0  0  0  0  0  0  0  0  0
  126.8519  134.7325  126.9395 C   0  0  0  0  0  0  0  0  0  0  0  0
  125.6607  135.1877  127.1929 O   0  0  0  0  0  0  0  0  0  0  0  0
  127.0200  134.3275  125.6519 O   0  0  0  0  0  0  0  0  0  0  0  0
  126.0515  134.3671  124.6334 C   0  0  0  0  0  0  0  0  0  0  0  0
  1  2  1  1
  2  3  1  0
  3  4  1  0
  5  4  1  1
  5  6  1  0
  6  7  2  0
  7  8  1  0
  8  9  2  0
  9 10  1  0
 10 11  1  0
  9 12  1  0
 12 13  2  0
 12 14  1  0
 14 15  1  0
 16 15  1  1
 16 17  1  0
 17 18  1  0
 18 19  1  1
 19 20  1  0
 20 21  1  1
 20 22  1  0
 22 23  1  0
 20 24  1  0
 18 25  1  0
 25 26  1  0
 26 27  1  0
 27 28  2  0
 28 29  1  0
 29 30  1  0
 30 31  2  0
 31 32  1  0
 32 33  2  0
 33 34  1  0
 34 35  2  0
 14 36  1  6
 36 37  2  0
 36 38  1  0
 38 39  1  0
  7 40  1  0
 40 41  1  0
 41 42  2  0
 43 40  1  6
 43 44  1  0
 44 45  1  1
 44 46  1  0
 46 47  1  1
 47 48  1  0
 48 49  1  0
 48 50  2  0
 46 51  1  0
 51 52  1  6
 52 53  1  0
 51 54  1  0
 54 55  2  0
 55 56  1  0
 44 57  1  0
 57 58  2  0
 57 59  1  0
 59 60  1  0
  5  1  1  0
 43  5  1  0
 51  1  1  0
 56  2  1  0
 13  6  1  0
 28 14  1  0
 35 30  1  0
 24 16  1  0
 35 27  1  0
M  END
$$$$
