
     RDKit          3D

 60 68  0  0  0  0  0  0  0  0999 V2000
  128.5088  142.5630  134.9472 C   0  0  2  0  0  0  0  0  0  0  0  0
  129.5381  142.0316  135.8315 N   0  0  0  0  0  0  0  0  0  0  0  0
  130.6719  142.9182  135.7025 C   0  0  0  0  0  0  0  0  0  0  0  0
  130.7131  143.1121  134.2088 C   0  0  0  0  0  0  0  0  0  0  0  0
  129.3125  142.8537  133.7330 C   0  0  1  0  0  0  0  0  0  0  0  0
  129.3203  141.7444  132.7395 C   0  0  0  0  0  0  0  0  0  0  0  0
  128.3586  142.0014  131.8016 C   0  0  0  0  0  0  0  0  0  0  0  0
  128.1557  141.1736  130.7223 C   0  0  0  0  0  0  0  0  0  0  0  0
  128.9158  140.0393  130.5395 C   0  0  0  0  0  0  0  0  0  0  0  0
  128.6975  139.2206  129.4503 O   0  0  0  0  0  0  0  0  0  0  0  0
  127.8790  138.0803  129.5762 C   0  0  0  0  0  0  0  0  0  0  0  0
  129.9036  139.7374  131.4728 C   0  0  0  0  0  0  0  0  0  0  0  0
  130.0801  140.6059  132.5533 C   0  0  0  0  0  0  0  0  0  0  0  0
  130.7968  138.5403  131.3617 C   0  0  1  0  0  0  0  0  0  0  0  0
  131.2172  138.5431  129.9948 C   0  0  0  0  0  0  0  0  0  0  0  0
  132.0841  139.4644  129.2253 C   0  0  1  0  0  0  0  0  0  0  0  0
  132.7206  140.3637  130.0321 C   0  0  0  0  0  0  0  0  0  0  0  0
  134.2690  140.7075  130.0032 N   0  0  0  0  0  0  0  0  0  0  0  0
  134.5320  140.4467  128.5026 C   0  0  0  0  0  0  0  0  0  0  0  0
  134.0770  139.2725  127.8891 C   0  0  2  0  0  0  0  0  0  0  0  0
  134.9124  138.1280  127.9718 O   0  0  0  0  0  0  0  0  0  0  0  0
  134.2305  139.6293  126.3773 C   0  0  0  0  0  0  0  0  0  0  0  0
  133.5595  140.9619  126.1812 C   0  0  0  0  0  0  0  0  0  0  0  0
  132.6860  138.7970  128.0137 C   0  0  0  0  0  0  0  0  0  0  0  0
  134.8542  139.3987  130.5943 C   0  0  0  0  0  0  0  0  0  0  0  0
  134.0587  138.4212  131.1762 C   0  0  0  0  0  0  0  0  0  0  0  0
  133.1979  138.5600  132.3456 C   0  0  0  0  0  0  0  0  0  0  0  0
  131.8363  138.6060  132.4161 C   0  0  0  0  0  0  0  0  0  0  0  0
  131.5246  138.6924  133.7535 N   0  0  0  0  0  0  0  0  0  0  0  0
  132.5774  138.7079  134.5306 C   0  0  0  0  0  0  0  0  0  0  0  0
  132.8170  138.7822  135.8867 C   0  0  0  0  0  0  0  0  0  0  0  0
  134.0874  138.7773  136.3954 C   0  0  0  0  0  0  0  0  0  0  0  0
  135.1966  138.6961  135.5413 C   0  0  0  0  0  0  0  0  0  0  0  0
  134.9496  138.6216  134.1855 C   0  0  0  0  0  0  0  0  0  0  0  0
  133.6621  138.6273  133.6859 C   0  0  0  0  0  0  0  0  0  0  0  0
  129.9460  137.3356  131.6082 C   0  0  0  0  0  0  0  0  0  0  0  0
  130.0067  136.2937  130.9044 O   0  0  0  0  0  0  0  0  0  0  0  0
  129.0508  137.3347  132.6271 O   0  0  0  0  0  0  0  0  0  0  0  0
  128.3547  136.2305  133.1572 C   0  0  0  0  0  0  0  0  0  0  0  0
  127.6530  143.2261  132.2269 N   0  0  0  0  0  0  0  0  0  0  0  0
  126.2978  143.3576  131.9002 C   0  0  0  0  0  0  0  0  0  0  0  0
  125.3194  142.8939  132.5211 O   0  0  0  0  0  0  0  0  0  0  0  0
  128.6876  143.9597  132.9064 C   0  0  1  0  0  0  0  0  0  0  0  0
  128.3535  145.1361  133.7023 C   0  0  2  0  0  0  0  0  0  0  0  0
  129.5969  145.4581  134.4074 O   0  0  0  0  0  0  0  0  0  0  0  0
  127.4108  144.8814  134.8470 C   0  0  2  0  0  0  0  0  0  0  0  0
  127.6305  145.9648  135.7768 O   0  0  0  0  0  0  0  0  0  0  0  0
  128.4310  147.0423  135.5419 C   0  0  0  0  0  0  0  0  0  0  0  0
  129.3117  147.6809  136.5539 C   0  0  0  0  0  0  0  0  0  0  0  0
  128.4398  147.5492  134.3922 O   0  0  0  0  0  0  0  0  0  0  0  0
  127.5935  143.5511  135.5039 C   0  0  1  0  0  0  0  0  0  0  0  0
  126.2035  142.8634  135.6190 C   0  0  0  0  0  0  0  0  0  0  0  0
  125.3563  143.4509  136.6907 C   0  0  0  0  0  0  0  0  0  0  0  0
  127.8912  143.8456  136.9307 C   0  0  0  0  0  0  0  0  0  0  0  0
  128.5854  143.0932  137.7501 C   0  0  0  0  0  0  0  0  0  0  0  0
  129.1236  141.8212  137.1814 C   0  0  0  0  0  0  0  0  0  0  0  0
  128.1475  146.3366  132.9116 C   0  0  0  0  0  0  0  0  0  0  0  0
  129.1507  147.0009  132.4190 O   0  0  0  0  0  0  0  0  0  0  0  0
  126.9349  146.8736  132.6094 O   0  0  0  0  0  0  0  0  0  0  0  0
  125.6820  146.3841  133.0187 C   0  0  0  0  0  0  0  0  0  0  0  0
  1  2  1  1
  2  3  1  0
  3  4  1  0
  5  4  1  1
  5  6  1  0
  6  7  2  0
  7  8  1  0
  8  9  2  0
  9 10  1  0
 10 11  1  0
  9 12  1  0
 12 13  2  0
 12 14  1  0
 14 15  1  0
 16 15  1  1
 16 17  1  0
 17 18  1  0
 18 19  1  6
 19 20  1  0
 20 21  1  1
 20 22  1  0
 22 23  1  0
 20 24  1  0
 18 25  1  0
 25 26  1  0
 26 27  1  0
 27 28  2  0
 28 29  1  0
 29 30  1  0
 30 31  2  0
 31 32  1  0
 32 33  2  0
 33 34  1  0
 34 35  2  0
 14 36  1  1
 36 37  2  0
 36 38  1  0
 38 39  1  0
  7 40  1  0
 40 41  1  0
 41 42  2  0
 43 40  1  1
 43 44  1  0
 44 45  1  1
 44 46  1  0
 46 47  1  1
 47 48  1  0
 48 49  1  0
 48 50  2  0
 46 51  1  0
 51 52  1  1
 52 53  1  0
 51 54  1  0
 54 55  2  0
 55 56  1  0
 44 57  1  0
 57 58  2  0
 57 59  1  0
 59 60  1  0
  5  1  1  0
 43  5  1  0
 51  1  1  0
 56  2  1  0
 13  6  1  0
 28 14  1  0
 35 30  1  0
 24 16  1  0
 35 27  1  0
M  END
$$$$
