
     RDKit          3D

 60 68  0  0  0  0  0  0  0  0999 V2000
  185.5663  157.3283  132.7825 C   0  0  2  0  0  0  0  0  0  0  0  0
  186.6642  158.2573  132.5466 N   0  0  0  0  0  0  0  0  0  0  0  0
  187.7997  157.7236  133.2635 C   0  0  0  0  0  0  0  0  0  0  0  0
  187.1541  157.3304  134.5670 C   0  0  0  0  0  0  0  0  0  0  0  0
  185.7055  157.1033  134.2436 C   0  0  1  0  0  0  0  0  0  0  0  0
  184.8618  158.0083  135.0725 C   0  0  0  0  0  0  0  0  0  0  0  0
  183.7036  157.3505  135.3830 C   0  0  0  0  0  0  0  0  0  0  0  0
  182.7381  157.9160  136.1826 C   0  0  0  0  0  0  0  0  0  0  0  0
  182.8955  159.1803  136.7067 C   0  0  0  0  0  0  0  0  0  0  0  0
  181.9155  159.7312  137.5070 O   0  0  0  0  0  0  0  0  0  0  0  0
  180.7912  160.3489  136.9236 C   0  0  0  0  0  0  0  0  0  0  0  0
  184.0580  159.8874  136.4126 C   0  0  0  0  0  0  0  0  0  0  0  0
  185.0159  159.2760  135.5991 C   0  0  0  0  0  0  0  0  0  0  0  0
  184.3380  161.2598  136.9426 C   0  0  1  0  0  0  0  0  0  0  0  0
  184.1632  161.1312  138.3562 C   0  0  0  0  0  0  0  0  0  0  0  0
  184.9317  160.3986  139.3883 C   0  0  1  0  0  0  0  0  0  0  0  0
  186.1103  159.9111  138.9007 C   0  0  0  0  0  0  0  0  0  0  0  0
  187.5352  160.0681  139.5802 N   0  0  0  0  0  0  0  0  0  0  0  0
  187.0796  160.1108  141.0566 C   0  0  0  0  0  0  0  0  0  0  0  0
  186.0304  160.9473  141.4586 C   0  0  2  0  0  0  0  0  0  0  0  0
  186.3558  162.2892  141.7870 O   0  0  0  0  0  0  0  0  0  0  0  0
  185.7014  160.3786  142.8744 C   0  0  0  0  0  0  0  0  0  0  0  0
  184.3787  160.9720  143.2779 C   0  0  0  0  0  0  0  0  0  0  0  0
  184.7285  160.9801  140.7654 C   0  0  0  0  0  0  0  0  0  0  0  0
  187.7871  161.5806  139.3488 C   0  0  0  0  0  0  0  0  0  0  0  0
  186.9858  162.3525  138.5187 C   0  0  0  0  0  0  0  0  0  0  0  0
  186.7619  162.1748  137.0883 C   0  0  0  0  0  0  0  0  0  0  0  0
  185.6525  161.7208  136.4368 C   0  0  0  0  0  0  0  0  0  0  0  0
  185.9402  161.7947  135.0933 N   0  0  0  0  0  0  0  0  0  0  0  0
  187.1400  162.2545  134.8452 C   0  0  0  0  0  0  0  0  0  0  0  0
  187.8975  162.5148  133.7226 C   0  0  0  0  0  0  0  0  0  0  0  0
  189.1699  163.0110  133.8109 C   0  0  0  0  0  0  0  0  0  0  0  0
  189.7477  163.2719  135.0617 C   0  0  0  0  0  0  0  0  0  0  0  0
  188.9840  163.0093  136.1808 C   0  0  0  0  0  0  0  0  0  0  0  0
  187.7010  162.5088  136.0769 C   0  0  0  0  0  0  0  0  0  0  0  0
  183.2771  162.1630  136.3999 C   0  0  0  0  0  0  0  0  0  0  0  0
  182.5746  162.9144  137.1254 O   0  0  0  0  0  0  0  0  0  0  0  0
  183.0298  162.1938  135.0667 O   0  0  0  0  0  0  0  0  0  0  0  0
  182.7215  161.1065  134.2255 C   0  0  0  0  0  0  0  0  0  0  0  0
  183.7397  156.0523  134.6817 N   0  0  0  0  0  0  0  0  0  0  0  0
  182.5270  155.4911  134.2630 C   0  0  0  0  0  0  0  0  0  0  0  0
  182.3421  154.3511  133.7898 O   0  0  0  0  0  0  0  0  0  0  0  0
  185.1472  155.7549  134.6523 C   0  0  1  0  0  0  0  0  0  0  0  0
  185.6511  154.6637  133.8251 C   0  0  2  0  0  0  0  0  0  0  0  0
  187.1073  154.8195  133.8726 O   0  0  0  0  0  0  0  0  0  0  0  0
  185.3771  154.8044  132.3524 C   0  0  2  0  0  0  0  0  0  0  0  0
  186.3641  153.9797  131.6951 O   0  0  0  0  0  0  0  0  0  0  0  0
  187.1439  153.0523  132.3186 C   0  0  0  0  0  0  0  0  0  0  0  0
  186.8083  152.3893  133.6052 C   0  0  0  0  0  0  0  0  0  0  0  0
  188.2311  152.7192  131.7840 O   0  0  0  0  0  0  0  0  0  0  0  0
  185.4224  156.2134  131.8549 C   0  0  1  0  0  0  0  0  0  0  0  0
  184.1374  156.4832  131.0218 C   0  0  0  0  0  0  0  0  0  0  0  0
  184.2525  156.0137  129.6155 C   0  0  0  0  0  0  0  0  0  0  0  0
  186.4651  156.2314  130.7951 C   0  0  0  0  0  0  0  0  0  0  0  0
  187.1894  157.2639  130.4363 C   0  0  0  0  0  0  0  0  0  0  0  0
  186.9320  158.5378  131.1726 C   0  0  0  0  0  0  0  0  0  0  0  0
  185.4789  153.3511  134.4220 C   0  0  0  0  0  0  0  0  0  0  0  0
  186.4601  152.7512  135.0285 O   0  0  0  0  0  0  0  0  0  0  0  0
  184.3216  152.6366  134.4157 O   0  0  0  0  0  0  0  0  0  0  0  0
  183.4797  152.4249  133.3097 C   0  0  0  0  0  0  0  0  0  0  0  0
  1  2  1  6
  2  3  1  0
  3  4  1  0
  5  4  1  1
  5  6  1  0
  6  7  2  0
  7  8  1  0
  8  9  2  0
  9 10  1  0
 10 11  1  0
  9 12  1  0
 12 13  2  0
 12 14  1  0
 14 15  1  0
 16 15  1  6
 16 17  1  0
 17 18  1  0
 18 19  1  1
 19 20  1  0
 20 21  1  1
 20 22  1  0
 22 23  1  0
 20 24  1  0
 18 25  1  0
 25 26  1  0
 26 27  1  0
 27 28  2  0
 28 29  1  0
 29 30  1  0
 30 31  2  0
 31 32  1  0
 32 33  2  0
 33 34  1  0
 34 35  2  0
 14 36  1  6
 36 37  2  0
 36 38  1  0
 38 39  1  0
  7 40  1  0
 40 41  1  0
 41 42  2  0
 43 40  1  6
 43 44  1  0
 44 45  1  6
 44 46  1  0
 46 47  1  6
 47 48  1  0
 48 49  1  0
 48 50  2  0
 46 51  1  0
 51 52  1  6
 52 53  1  0
 51 54  1  0
 54 55  2  0
 55 56  1  0
 44 57  1  0
 57 58  2  0
 57 59  1  0
 59 60  1  0
  5  1  1  0
 43  5  1  0
 51  1  1  0
 56  2  1  0
 13  6  1  0
 28 14  1  0
 35 30  1  0
 24 16  1  0
 35 27  1  0
M  END
$$$$
