
     RDKit          3D

 60 68  0  0  0  0  0  0  0  0999 V2000
  127.9491  141.5097  133.2473 C   0  0  2  0  0  0  0  0  0  0  0  0
  127.9430  140.2444  133.9704 N   0  0  0  0  0  0  0  0  0  0  0  0
  128.8069  140.4336  135.1133 C   0  0  0  0  0  0  0  0  0  0  0  0
  129.9660  141.1564  134.4772 C   0  0  0  0  0  0  0  0  0  0  0  0
  129.3998  141.8258  133.2582 C   0  0  1  0  0  0  0  0  0  0  0  0
  130.1256  141.3522  132.0470 C   0  0  0  0  0  0  0  0  0  0  0  0
  130.2092  142.3923  131.1627 C   0  0  0  0  0  0  0  0  0  0  0  0
  130.8688  142.2744  129.9618 C   0  0  0  0  0  0  0  0  0  0  0  0
  131.4756  141.0938  129.5932 C   0  0  0  0  0  0  0  0  0  0  0  0
  132.1328  140.9945  128.3839 O   0  0  0  0  0  0  0  0  0  0  0  0
  132.2869  142.1331  127.5677 C   0  0  0  0  0  0  0  0  0  0  0  0
  131.4113  140.0079  130.4619 C   0  0  0  0  0  0  0  0  0  0  0  0
  130.7345  140.1698  131.6738 C   0  0  0  0  0  0  0  0  0  0  0  0
  132.0495  138.6853  130.1682 C   0  0  1  0  0  0  0  0  0  0  0  0
  131.8561  137.9297  131.3669 C   0  0  0  0  0  0  0  0  0  0  0  0
  130.6393  137.3836  132.0100 C   0  0  1  0  0  0  0  0  0  0  0  0
  129.5426  137.4856  131.2028 C   0  0  0  0  0  0  0  0  0  0  0  0
  128.5123  136.3231  130.8806 N   0  0  0  0  0  0  0  0  0  0  0  0
  128.6262  135.5432  132.2101 C   0  0  0  0  0  0  0  0  0  0  0  0
  129.8794  135.2217  132.7469 C   0  0  2  0  0  0  0  0  0  0  0  0
  130.4974  134.0284  132.2904 O   0  0  0  0  0  0  0  0  0  0  0  0
  129.4995  134.8074  134.2031 C   0  0  0  0  0  0  0  0  0  0  0  0
  128.6427  133.5755  134.0885 C   0  0  0  0  0  0  0  0  0  0  0  0
  130.9517  136.2204  132.9184 C   0  0  0  0  0  0  0  0  0  0  0  0
  129.3904  135.4169  129.9791 C   0  0  0  0  0  0  0  0  0  0  0  0
  130.6241  135.8224  129.4889 C   0  0  0  0  0  0  0  0  0  0  0  0
  130.9002  136.9553  128.6125 C   0  0  0  0  0  0  0  0  0  0  0  0
  131.4985  138.1467  128.9021 C   0  0  0  0  0  0  0  0  0  0  0  0
  131.5622  138.8417  127.7164 N   0  0  0  0  0  0  0  0  0  0  0  0
  131.0506  138.1878  126.7048 C   0  0  0  0  0  0  0  0  0  0  0  0
  130.8661  138.4173  125.3575 C   0  0  0  0  0  0  0  0  0  0  0  0
  130.2715  137.4917  124.5436 C   0  0  0  0  0  0  0  0  0  0  0  0
  129.8266  136.2674  125.0629 C   0  0  0  0  0  0  0  0  0  0  0  0
  130.0147  136.0442  126.4117 C   0  0  0  0  0  0  0  0  0  0  0  0
  130.6165  136.9873  127.2215 C   0  0  0  0  0  0  0  0  0  0  0  0
  133.5114  138.9372  129.9806 C   0  0  0  0  0  0  0  0  0  0  0  0
  134.1778  138.4511  129.0298 O   0  0  0  0  0  0  0  0  0  0  0  0
  134.1837  139.7174  130.8632 O   0  0  0  0  0  0  0  0  0  0  0  0
  135.5153  140.1679  130.7697 C   0  0  0  0  0  0  0  0  0  0  0  0
  129.4576  143.5205  131.7464 N   0  0  0  0  0  0  0  0  0  0  0  0
  128.8188  144.4123  130.8761 C   0  0  0  0  0  0  0  0  0  0  0  0
  128.3548  144.1660  129.7439 O   0  0  0  0  0  0  0  0  0  0  0  0
  129.6425  143.3185  133.1590 C   0  0  1  0  0  0  0  0  0  0  0  0
  128.8537  144.0815  134.1205 C   0  0  2  0  0  0  0  0  0  0  0  0
  129.1456  143.4472  135.4087 O   0  0  0  0  0  0  0  0  0  0  0  0
  127.3652  143.8887  134.0158 C   0  0  2  0  0  0  0  0  0  0  0  0
  126.8360  144.2566  135.3085 O   0  0  0  0  0  0  0  0  0  0  0  0
  127.4709  145.0563  136.2108 C   0  0  0  0  0  0  0  0  0  0  0  0
  126.9767  145.3468  137.5816 C   0  0  0  0  0  0  0  0  0  0  0  0
  128.5550  145.5986  135.8799 O   0  0  0  0  0  0  0  0  0  0  0  0
  126.9546  142.5039  133.6303 C   0  0  1  0  0  0  0  0  0  0  0  0
  125.9382  142.5999  132.4573 C   0  0  0  0  0  0  0  0  0  0  0  0
  124.6211  143.1468  132.8786 C   0  0  0  0  0  0  0  0  0  0  0  0
  126.0810  142.0228  134.7333 C   0  0  0  0  0  0  0  0  0  0  0  0
  125.8983  140.7744  135.0905 C   0  0  0  0  0  0  0  0  0  0  0  0
  126.6471  139.7476  134.3055 C   0  0  0  0  0  0  0  0  0  0  0  0
  129.3466  145.4295  134.3410 C   0  0  0  0  0  0  0  0  0  0  0  0
  130.5849  145.6502  134.6702 O   0  0  0  0  0  0  0  0  0  0  0  0
  128.6006  146.5614  134.2294 O   0  0  0  0  0  0  0  0  0  0  0  0
  129.0150  147.7792  133.6619 C   0  0  0  0  0  0  0  0  0  0  0  0
  1  2  1  1
  2  3  1  0
  3  4  1  0
  5  4  1  1
  5  6  1  0
  6  7  2  0
  7  8  1  0
  8  9  2  0
  9 10  1  0
 10 11  1  0
  9 12  1  0
 12 13  2  0
 12 14  1  0
 14 15  1  0
 16 15  1  6
 16 17  1  0
 17 18  1  0
 18 19  1  1
 19 20  1  0
 20 21  1  6
 20 22  1  0
 22 23  1  0
 20 24  1  0
 18 25  1  0
 25 26  1  0
 26 27  1  0
 27 28  2  0
 28 29  1  0
 29 30  1  0
 30 31  2  0
 31 32  1  0
 32 33  2  0
 33 34  1  0
 34 35  2  0
 14 36  1  6
 36 37  2  0
 36 38  1  0
 38 39  1  0
  7 40  1  0
 40 41  1  0
 41 42  2  0
 43 40  1  6
 43 44  1  0
 44 45  1  1
 44 46  1  0
 46 47  1  1
 47 48  1  0
 48 49  1  0
 48 50  2  0
 46 51  1  0
 51 52  1  6
 52 53  1  0
 51 54  1  0
 54 55  2  0
 55 56  1  0
 44 57  1  0
 57 58  2  0
 57 59  1  0
 59 60  1  0
  5  1  1  0
 43  5  1  0
 51  1  1  0
 56  2  1  0
 13  6  1  0
 28 14  1  0
 35 30  1  0
 24 16  1  0
 35 27  1  0
M  END
$$$$
