
     RDKit          3D

 60 68  0  0  0  0  0  0  0  0999 V2000
  129.1060  140.0975  134.4111 C   0  0  2  0  0  0  0  0  0  0  0  0
  130.4021  139.5985  134.8525 N   0  0  0  0  0  0  0  0  0  0  0  0
  131.3388  140.6784  134.6411 C   0  0  0  0  0  0  0  0  0  0  0  0
  130.9215  141.1533  133.2734 C   0  0  0  0  0  0  0  0  0  0  0  0
  129.4830  140.7473  133.1304 C   0  0  1  0  0  0  0  0  0  0  0  0
  129.3305  139.8630  131.9418 C   0  0  0  0  0  0  0  0  0  0  0  0
  128.1147  140.1187  131.3698 C   0  0  0  0  0  0  0  0  0  0  0  0
  127.7045  139.4856  130.2199 C   0  0  0  0  0  0  0  0  0  0  0  0
  128.5050  138.5570  129.5916 C   0  0  0  0  0  0  0  0  0  0  0  0
  128.0761  137.9319  128.4386 O   0  0  0  0  0  0  0  0  0  0  0  0
  126.7749  138.1652  127.9503 C   0  0  0  0  0  0  0  0  0  0  0  0
  129.7493  138.2633  130.1423 C   0  0  0  0  0  0  0  0  0  0  0  0
  130.1300  138.9308  131.3095 C   0  0  0  0  0  0  0  0  0  0  0  0
  130.7042  137.2838  129.5325 C   0  0  1  0  0  0  0  0  0  0  0  0
  130.7495  137.6529  128.1515 C   0  0  0  0  0  0  0  0  0  0  0  0
  131.2819  138.8499  127.4615 C   0  0  1  0  0  0  0  0  0  0  0  0
  132.0081  139.6454  128.3009 C   0  0  0  0  0  0  0  0  0  0  0  0
  133.4494  140.2390  128.0061 N   0  0  0  0  0  0  0  0  0  0  0  0
  133.3368  140.3574  126.4692 C   0  0  0  0  0  0  0  0  0  0  0  0
  132.8645  139.2856  125.7009 C   0  0  2  0  0  0  0  0  0  0  0  0
  133.8090  138.3050  125.2997 O   0  0  0  0  0  0  0  0  0  0  0  0
  132.5783  139.9824  124.3338 C   0  0  0  0  0  0  0  0  0  0  0  0
  133.9077  140.4460  123.8023 C   0  0  0  0  0  0  0  0  0  0  0  0
  131.6132  138.5706  126.0165 C   0  0  0  0  0  0  0  0  0  0  0  0
  134.3045  138.9486  128.0990 C   0  0  0  0  0  0  0  0  0  0  0  0
  133.7975  137.7501  128.5822 C   0  0  0  0  0  0  0  0  0  0  0  0
  133.2629  137.4871  129.9137 C   0  0  0  0  0  0  0  0  0  0  0  0
  131.9702  137.2904  130.3029 C   0  0  0  0  0  0  0  0  0  0  0  0
  132.0120  137.0316  131.6536 N   0  0  0  0  0  0  0  0  0  0  0  0
  133.2237  137.0523  132.1476 C   0  0  0  0  0  0  0  0  0  0  0  0
  133.8004  136.8692  133.3868 C   0  0  0  0  0  0  0  0  0  0  0  0
  135.1528  136.9646  133.5735 C   0  0  0  0  0  0  0  0  0  0  0  0
  136.0020  137.2556  132.4962 C   0  0  0  0  0  0  0  0  0  0  0  0
  135.4182  137.4374  131.2590 C   0  0  0  0  0  0  0  0  0  0  0  0
  134.0518  137.3379  131.0849 C   0  0  0  0  0  0  0  0  0  0  0  0
  130.0805  135.9305  129.6557 C   0  0  0  0  0  0  0  0  0  0  0  0
  130.1768  135.0440  128.7672 O   0  0  0  0  0  0  0  0  0  0  0  0
  129.3642  135.6123  130.7626 O   0  0  0  0  0  0  0  0  0  0  0  0
  128.6576  134.4197  131.0143 C   0  0  0  0  0  0  0  0  0  0  0  0
  127.4261  141.0987  132.2323 N   0  0  0  0  0  0  0  0  0  0  0  0
  126.0287  141.0495  132.3068 C   0  0  0  0  0  0  0  0  0  0  0  0
  125.2283  140.7965  131.3830 O   0  0  0  0  0  0  0  0  0  0  0  0
  128.5211  141.8617  132.7701 C   0  0  1  0  0  0  0  0  0  0  0  0
  128.2985  142.7906  133.8730 C   0  0  2  0  0  0  0  0  0  0  0  0
  129.6471  143.1876  134.2864 O   0  0  0  0  0  0  0  0  0  0  0  0
  127.7651  142.1644  135.1329 C   0  0  2  0  0  0  0  0  0  0  0  0
  128.1182  143.0755  136.1967 O   0  0  0  0  0  0  0  0  0  0  0  0
  128.4564  144.3838  136.0212 C   0  0  0  0  0  0  0  0  0  0  0  0
  129.8259  144.9354  136.1884 C   0  0  0  0  0  0  0  0  0  0  0  0
  127.5597  145.2011  135.6945 O   0  0  0  0  0  0  0  0  0  0  0  0
  128.2838  140.7875  135.3970 C   0  0  1  0  0  0  0  0  0  0  0  0
  127.0766  139.8576  135.7073 C   0  0  0  0  0  0  0  0  0  0  0  0
  126.5657  140.0192  137.0945 C   0  0  0  0  0  0  0  0  0  0  0  0
  128.9467  140.8566  136.7262 C   0  0  0  0  0  0  0  0  0  0  0  0
  129.9313  140.0973  137.1428 C   0  0  0  0  0  0  0  0  0  0  0  0
  130.4248  139.0691  136.1783 C   0  0  0  0  0  0  0  0  0  0  0  0
  127.7340  144.0631  133.4596 C   0  0  0  0  0  0  0  0  0  0  0  0
  128.4828  145.1141  133.3004 O   0  0  0  0  0  0  0  0  0  0  0  0
  126.4173  144.2858  133.2012 O   0  0  0  0  0  0  0  0  0  0  0  0
  125.8946  145.1970  132.2666 C   0  0  0  0  0  0  0  0  0  0  0  0
  1  2  1  1
  2  3  1  0
  3  4  1  0
  5  4  1  1
  5  6  1  0
  6  7  2  0
  7  8  1  0
  8  9  2  0
  9 10  1  0
 10 11  1  0
  9 12  1  0
 12 13  2  0
 12 14  1  0
 14 15  1  0
 16 15  1  1
 16 17  1  0
 17 18  1  0
 18 19  1  6
 19 20  1  0
 20 21  1  6
 20 22  1  0
 22 23  1  0
 20 24  1  0
 18 25  1  0
 25 26  1  0
 26 27  1  0
 27 28  2  0
 28 29  1  0
 29 30  1  0
 30 31  2  0
 31 32  1  0
 32 33  2  0
 33 34  1  0
 34 35  2  0
 14 36  1  6
 36 37  2  0
 36 38  1  0
 38 39  1  0
  7 40  1  0
 40 41  1  0
 41 42  2  0
 43 40  1  1
 43 44  1  0
 44 45  1  1
 44 46  1  0
 46 47  1  1
 47 48  1  0
 48 49  1  0
 48 50  2  0
 46 51  1  0
 51 52  1  1
 52 53  1  0
 51 54  1  0
 54 55  2  0
 55 56  1  0
 44 57  1  0
 57 58  2  0
 57 59  1  0
 59 60  1  0
  5  1  1  0
 43  5  1  0
 51  1  1  0
 56  2  1  0
 13  6  1  0
 28 14  1  0
 35 30  1  0
 24 16  1  0
 35 27  1  0
M  END
$$$$
