
     RDKit          3D

 60 68  0  0  0  0  0  0  0  0999 V2000
  172.7373  146.0605  119.9411 C   0  0  2  0  0  0  0  0  0  0  0  0
  172.4382  147.4749  120.1251 N   0  0  0  0  0  0  0  0  0  0  0  0
  173.7076  148.1627  120.0634 C   0  0  0  0  0  0  0  0  0  0  0  0
  174.5635  147.2567  120.9102 C   0  0  0  0  0  0  0  0  0  0  0  0
  173.9081  145.9075  120.8413 C   0  0  1  0  0  0  0  0  0  0  0  0
  173.5530  145.4551  122.2150 C   0  0  0  0  0  0  0  0  0  0  0  0
  173.7073  144.0973  122.2729 C   0  0  0  0  0  0  0  0  0  0  0  0
  173.4969  143.3904  123.4337 C   0  0  0  0  0  0  0  0  0  0  0  0
  173.1155  144.0236  124.5962 C   0  0  0  0  0  0  0  0  0  0  0  0
  172.9088  143.2974  125.7513 O   0  0  0  0  0  0  0  0  0  0  0  0
  173.1640  141.9115  125.7699 C   0  0  0  0  0  0  0  0  0  0  0  0
  172.9429  145.4049  124.5810 C   0  0  0  0  0  0  0  0  0  0  0  0
  173.1699  146.0865  123.3823 C   0  0  0  0  0  0  0  0  0  0  0  0
  172.5469  146.1941  125.7907 C   0  0  1  0  0  0  0  0  0  0  0  0
  172.1133  147.4503  125.2623 C   0  0  0  0  0  0  0  0  0  0  0  0
  170.9463  147.8280  124.4328 C   0  0  1  0  0  0  0  0  0  0  0  0
  170.0497  146.8051  124.3126 C   0  0  0  0  0  0  0  0  0  0  0  0
  168.4828  146.9092  124.5374 N   0  0  0  0  0  0  0  0  0  0  0  0
  168.2879  148.3800  124.1042 C   0  0  0  0  0  0  0  0  0  0  0  0
  169.1222  149.3896  124.6009 C   0  0  2  0  0  0  0  0  0  0  0  0
  168.7666  149.9765  125.8433 O   0  0  0  0  0  0  0  0  0  0  0  0
  168.8028  150.5670  123.6272 C   0  0  0  0  0  0  0  0  0  0  0  0
  167.3822  150.9790  123.9042 C   0  0  0  0  0  0  0  0  0  0  0  0
  170.5939  149.2873  124.5815 C   0  0  0  0  0  0  0  0  0  0  0  0
  168.4355  147.0900  126.0769 C   0  0  0  0  0  0  0  0  0  0  0  0
  169.5508  146.9130  126.8841 C   0  0  0  0  0  0  0  0  0  0  0  0
  170.3363  145.6958  127.0551 C   0  0  0  0  0  0  0  0  0  0  0  0
  171.5881  145.4035  126.5983 C   0  0  0  0  0  0  0  0  0  0  0  0
  171.8871  144.1485  127.0765 N   0  0  0  0  0  0  0  0  0  0  0  0
  170.9258  143.6252  127.7939 C   0  0  0  0  0  0  0  0  0  0  0  0
  170.7170  142.4442  128.4748 C   0  0  0  0  0  0  0  0  0  0  0  0
  169.5526  142.1980  129.1504 C   0  0  0  0  0  0  0  0  0  0  0  0
  168.5247  143.1516  129.1695 C   0  0  0  0  0  0  0  0  0  0  0  0
  168.7404  144.3312  128.4863 C   0  0  0  0  0  0  0  0  0  0  0  0
  169.9206  144.5664  127.8089 C   0  0  0  0  0  0  0  0  0  0  0  0
  173.7866  146.4066  126.5993 C   0  0  0  0  0  0  0  0  0  0  0  0
  173.9074  147.3309  127.4452 O   0  0  0  0  0  0  0  0  0  0  0  0
  174.8534  145.5856  126.4332 O   0  0  0  0  0  0  0  0  0  0  0  0
  176.0225  145.8374  125.6885 C   0  0  0  0  0  0  0  0  0  0  0  0
  174.0697  143.6427  120.9163 N   0  0  0  0  0  0  0  0  0  0  0  0
  173.6554  142.3678  120.5117 C   0  0  0  0  0  0  0  0  0  0  0  0
  172.4869  141.9333  120.4524 O   0  0  0  0  0  0  0  0  0  0  0  0
  174.8027  144.7673  120.3980 C   0  0  1  0  0  0  0  0  0  0  0  0
  175.1393  144.8354  118.9800 C   0  0  2  0  0  0  0  0  0  0  0  0
  175.6586  146.1935  118.7986 O   0  0  0  0  0  0  0  0  0  0  0  0
  173.9594  144.8326  118.0464 C   0  0  2  0  0  0  0  0  0  0  0  0
  174.4361  145.4271  116.8194 O   0  0  0  0  0  0  0  0  0  0  0  0
  175.7487  145.5948  116.4940 C   0  0  0  0  0  0  0  0  0  0  0  0
  176.7927  146.1077  117.4185 C   0  0  0  0  0  0  0  0  0  0  0  0
  176.1255  145.3009  115.3319 O   0  0  0  0  0  0  0  0  0  0  0  0
  172.7614  145.5541  118.5747 C   0  0  1  0  0  0  0  0  0  0  0  0
  171.5201  144.6313  118.4140 C   0  0  0  0  0  0  0  0  0  0  0  0
  170.5555  145.1333  117.3997 C   0  0  0  0  0  0  0  0  0  0  0  0
  172.4631  146.6184  117.5800 C   0  0  0  0  0  0  0  0  0  0  0  0
  171.8669  147.7611  117.8212 C   0  0  0  0  0  0  0  0  0  0  0  0
  171.4541  148.0038  119.2361 C   0  0  0  0  0  0  0  0  0  0  0  0
  176.2921  144.0314  118.6144 C   0  0  0  0  0  0  0  0  0  0  0  0
  177.3154  144.5553  118.0071 O   0  0  0  0  0  0  0  0  0  0  0  0
  176.4243  142.6999  118.8591 O   0  0  0  0  0  0  0  0  0  0  0  0
  175.3855  141.8012  119.1591 C   0  0  0  0  0  0  0  0  0  0  0  0
  1  2  1  6
  2  3  1  0
  3  4  1  0
  5  4  1  1
  5  6  1  0
  6  7  2  0
  7  8  1  0
  8  9  2  0
  9 10  1  0
 10 11  1  0
  9 12  1  0
 12 13  2  0
 12 14  1  0
 14 15  1  0
 16 15  1  1
 16 17  1  0
 17 18  1  0
 18 19  1  6
 19 20  1  0
 20 21  1  1
 20 22  1  0
 22 23  1  0
 20 24  1  0
 18 25  1  0
 25 26  1  0
 26 27  1  0
 27 28  2  0
 28 29  1  0
 29 30  1  0
 30 31  2  0
 31 32  1  0
 32 33  2  0
 33 34  1  0
 34 35  2  0
 14 36  1  1
 36 37  2  0
 36 38  1  0
 38 39  1  0
  7 40  1  0
 40 41  1  0
 41 42  2  0
 43 40  1  6
 43 44  1  0
 44 45  1  1
 44 46  1  0
 46 47  1  6
 47 48  1  0
 48 49  1  0
 48 50  2  0
 46 51  1  0
 51 52  1  1
 52 53  1  0
 51 54  1  0
 54 55  2  0
 55 56  1  0
 44 57  1  0
 57 58  2  0
 57 59  1  0
 59 60  1  0
  5  1  1  0
 43  5  1  0
 51  1  1  0
 56  2  1  0
 13  6  1  0
 28 14  1  0
 35 30  1  0
 24 16  1  0
 35 27  1  0
M  END
$$$$
