
     RDKit          3D

 60 68  0  0  0  0  0  0  0  0999 V2000
  173.9011  164.3569  110.3426 C   0  0  2  0  0  0  0  0  0  0  0  0
  174.3912  163.0634  109.8836 N   0  0  0  0  0  0  0  0  0  0  0  0
  175.4548  163.3486  108.9480 C   0  0  0  0  0  0  0  0  0  0  0  0
  174.8380  164.4668  108.1482 C   0  0  0  0  0  0  0  0  0  0  0  0
  173.8178  165.0920  109.0552 C   0  0  1  0  0  0  0  0  0  0  0  0
  172.4751  165.0280  108.4142 C   0  0  0  0  0  0  0  0  0  0  0  0
  171.7802  166.1542  108.7601 C   0  0  0  0  0  0  0  0  0  0  0  0
  170.5158  166.4045  108.2806 C   0  0  0  0  0  0  0  0  0  0  0  0
  169.8883  165.5235  107.4274 C   0  0  0  0  0  0  0  0  0  0  0  0
  168.6192  165.7918  106.9567 O   0  0  0  0  0  0  0  0  0  0  0  0
  168.0514  167.0681  107.1430 C   0  0  0  0  0  0  0  0  0  0  0  0
  170.5580  164.3621  107.0525 C   0  0  0  0  0  0  0  0  0  0  0  0
  171.8425  164.1467  107.5591 C   0  0  0  0  0  0  0  0  0  0  0  0
  169.9760  163.3465  106.1183 C   0  0  1  0  0  0  0  0  0  0  0  0
  171.0757  162.9649  105.2873 C   0  0  0  0  0  0  0  0  0  0  0  0
  172.3256  162.2245  105.5739 C   0  0  1  0  0  0  0  0  0  0  0  0
  172.3184  161.6694  106.8215 C   0  0  0  0  0  0  0  0  0  0  0  0
  172.6939  160.1692  107.1753 N   0  0  0  0  0  0  0  0  0  0  0  0
  173.7185  159.9186  106.0455 C   0  0  0  0  0  0  0  0  0  0  0  0
  173.4201  160.2582  104.7197 C   0  0  2  0  0  0  0  0  0  0  0  0
  172.7156  159.3007  103.9443 O   0  0  0  0  0  0  0  0  0  0  0  0
  174.8295  160.1844  104.0528 C   0  0  0  0  0  0  0  0  0  0  0  0
  175.4950  161.5094  104.3092 C   0  0  0  0  0  0  0  0  0  0  0  0
  172.9022  161.5851  104.3352 C   0  0  0  0  0  0  0  0  0  0  0  0
  171.4699  159.4289  106.5763 C   0  0  0  0  0  0  0  0  0  0  0  0
  170.3369  160.0971  106.1329 C   0  0  0  0  0  0  0  0  0  0  0  0
  169.4395  160.9370  106.9186 C   0  0  0  0  0  0  0  0  0  0  0  0
  169.2920  162.2932  106.9052 C   0  0  0  0  0  0  0  0  0  0  0  0
  168.2807  162.5773  107.7939 N   0  0  0  0  0  0  0  0  0  0  0  0
  167.7817  161.5125  108.3681 C   0  0  0  0  0  0  0  0  0  0  0  0
  166.7976  161.2471  109.2971 C   0  0  0  0  0  0  0  0  0  0  0  0
  166.5134  159.9709  109.7012 C   0  0  0  0  0  0  0  0  0  0  0  0
  167.2242  158.8822  109.1759 C   0  0  0  0  0  0  0  0  0  0  0  0
  168.2073  159.1550  108.2465 C   0  0  0  0  0  0  0  0  0  0  0  0
  168.4834  160.4480  107.8476 C   0  0  0  0  0  0  0  0  0  0  0  0
  168.9563  164.0534  105.2840 C   0  0  0  0  0  0  0  0  0  0  0  0
  169.0903  165.2424  104.8929 O   0  0  0  0  0  0  0  0  0  0  0  0
  167.8175  163.4137  104.9186 O   0  0  0  0  0  0  0  0  0  0  0  0
  166.8525  163.8438  103.9866 C   0  0  0  0  0  0  0  0  0  0  0  0
  172.6242  166.9129  109.7038 N   0  0  0  0  0  0  0  0  0  0  0  0
  171.9914  167.6790  110.6904 C   0  0  0  0  0  0  0  0  0  0  0  0
  172.4799  168.0851  111.7648 O   0  0  0  0  0  0  0  0  0  0  0  0
  173.9540  166.5874  109.2611 C   0  0  1  0  0  0  0  0  0  0  0  0
  175.1087  166.9391  110.0808 C   0  0  2  0  0  0  0  0  0  0  0  0
  176.2310  166.2548  109.4333 O   0  0  0  0  0  0  0  0  0  0  0  0
  175.1253  166.3215  111.4527 C   0  0  2  0  0  0  0  0  0  0  0  0
  176.5095  166.3342  111.8654 O   0  0  0  0  0  0  0  0  0  0  0  0
  177.0730  167.2771  112.6718 C   0  0  0  0  0  0  0  0  0  0  0  0
  176.4158  168.5452  113.0812 C   0  0  0  0  0  0  0  0  0  0  0  0
  178.2332  167.0802  113.1122 O   0  0  0  0  0  0  0  0  0  0  0  0
  174.5502  164.9428  111.5085 C   0  0  1  0  0  0  0  0  0  0  0  0
  173.5219  164.8848  112.6736 C   0  0  0  0  0  0  0  0  0  0  0  0
  174.1177  164.3948  113.9449 C   0  0  0  0  0  0  0  0  0  0  0  0
  175.6369  164.0759  112.0364 C   0  0  0  0  0  0  0  0  0  0  0  0
  175.7895  162.7944  111.8041 C   0  0  0  0  0  0  0  0  0  0  0  0
  174.7663  162.1578  110.9217 C   0  0  0  0  0  0  0  0  0  0  0  0
  175.5075  168.3303  109.9611 C   0  0  0  0  0  0  0  0  0  0  0  0
  176.5046  168.6842  109.2055 O   0  0  0  0  0  0  0  0  0  0  0  0
  174.9061  169.3720  110.5962 O   0  0  0  0  0  0  0  0  0  0  0  0
  175.5296  170.2983  111.4507 C   0  0  0  0  0  0  0  0  0  0  0  0
  1  2  1  6
  2  3  1  0
  3  4  1  0
  5  4  1  6
  5  6  1  0
  6  7  2  0
  7  8  1  0
  8  9  2  0
  9 10  1  0
 10 11  1  0
  9 12  1  0
 12 13  2  0
 12 14  1  0
 14 15  1  0
 16 15  1  6
 16 17  1  0
 17 18  1  0
 18 19  1  6
 19 20  1  0
 20 21  1  6
 20 22  1  0
 22 23  1  0
 20 24  1  0
 18 25  1  0
 25 26  1  0
 26 27  1  0
 27 28  2  0
 28 29  1  0
 29 30  1  0
 30 31  2  0
 31 32  1  0
 32 33  2  0
 33 34  1  0
 34 35  2  0
 14 36  1  6
 36 37  2  0
 36 38  1  0
 38 39  1  0
  7 40  1  0
 40 41  1  0
 41 42  2  0
 43 40  1  1
 43 44  1  0
 44 45  1  6
 44 46  1  0
 46 47  1  6
 47 48  1  0
 48 49  1  0
 48 50  2  0
 46 51  1  0
 51 52  1  1
 52 53  1  0
 51 54  1  0
 54 55  2  0
 55 56  1  0
 44 57  1  0
 57 58  2  0
 57 59  1  0
 59 60  1  0
  5  1  1  0
 43  5  1  0
 51  1  1  0
 56  2  1  0
 13  6  1  0
 28 14  1  0
 35 30  1  0
 24 16  1  0
 35 27  1  0
M  END
$$$$
