
     RDKit          3D

 60 68  0  0  0  0  0  0  0  0999 V2000
  148.3449  167.3460  133.1344 C   0  0  2  0  0  0  0  0  0  0  0  0
  147.6384  166.6052  132.0972 N   0  0  0  0  0  0  0  0  0  0  0  0
  148.5652  166.4780  130.9958 C   0  0  0  0  0  0  0  0  0  0  0  0
  149.1375  167.8709  130.9431 C   0  0  0  0  0  0  0  0  0  0  0  0
  148.9640  168.4274  132.3269 C   0  0  1  0  0  0  0  0  0  0  0  0
  148.1479  169.6716  132.2651 C   0  0  0  0  0  0  0  0  0  0  0  0
  148.6054  170.5330  133.2240 C   0  0  0  0  0  0  0  0  0  0  0  0
  148.0763  171.7925  133.3821 C   0  0  0  0  0  0  0  0  0  0  0  0
  147.0527  172.2432  132.5779 C   0  0  0  0  0  0  0  0  0  0  0  0
  146.5345  173.5103  132.7517 O   0  0  0  0  0  0  0  0  0  0  0  0
  147.1980  174.4377  133.5798 C   0  0  0  0  0  0  0  0  0  0  0  0
  146.5539  171.3972  131.5913 C   0  0  0  0  0  0  0  0  0  0  0  0
  147.1210  170.1266  131.4610 C   0  0  0  0  0  0  0  0  0  0  0  0
  145.4555  171.7918  130.6527 C   0  0  1  0  0  0  0  0  0  0  0  0
  145.8532  173.0779  130.1698 C   0  0  0  0  0  0  0  0  0  0  0  0
  146.9720  173.5088  129.3009 C   0  0  1  0  0  0  0  0  0  0  0  0
  147.6194  172.4484  128.7342 C   0  0  0  0  0  0  0  0  0  0  0  0
  147.9890  172.2953  127.1991 N   0  0  0  0  0  0  0  0  0  0  0  0
  148.1684  173.7921  126.8579 C   0  0  0  0  0  0  0  0  0  0  0  0
  147.2065  174.7348  127.2427 C   0  0  2  0  0  0  0  0  0  0  0  0
  146.1026  174.9321  126.3726 O   0  0  0  0  0  0  0  0  0  0  0  0
  147.9792  176.0746  127.0319 C   0  0  0  0  0  0  0  0  0  0  0  0
  148.9145  175.8523  125.8742 C   0  0  0  0  0  0  0  0  0  0  0  0
  146.6868  174.8247  128.6205 C   0  0  0  0  0  0  0  0  0  0  0  0
  146.5787  172.0653  126.5965 C   0  0  0  0  0  0  0  0  0  0  0  0
  145.4605  171.8259  127.3835 C   0  0  0  0  0  0  0  0  0  0  0  0
  145.2454  170.7132  128.3018 C   0  0  0  0  0  0  0  0  0  0  0  0
  145.2417  170.7066  129.6661 C   0  0  0  0  0  0  0  0  0  0  0  0
  144.9402  169.4179  130.0422 N   0  0  0  0  0  0  0  0  0  0  0  0
  144.7569  168.6119  129.0277 C   0  0  0  0  0  0  0  0  0  0  0  0
  144.4498  167.2787  128.8539 C   0  0  0  0  0  0  0  0  0  0  0  0
  144.3273  166.7237  127.6090 C   0  0  0  0  0  0  0  0  0  0  0  0
  144.5134  167.5047  126.4593 C   0  0  0  0  0  0  0  0  0  0  0  0
  144.8203  168.8379  126.6404 C   0  0  0  0  0  0  0  0  0  0  0  0
  144.9406  169.3849  127.9028 C   0  0  0  0  0  0  0  0  0  0  0  0
  144.2132  171.9407  131.4713 C   0  0  0  0  0  0  0  0  0  0  0  0
  143.5072  172.9828  131.4687 O   0  0  0  0  0  0  0  0  0  0  0  0
  143.8024  170.9252  132.2711 O   0  0  0  0  0  0  0  0  0  0  0  0
  142.4796  170.5879  132.6191 C   0  0  0  0  0  0  0  0  0  0  0  0
  149.6558  169.8235  133.9801 N   0  0  0  0  0  0  0  0  0  0  0  0
  149.8222  170.1351  135.3351 C   0  0  0  0  0  0  0  0  0  0  0  0
  150.2721  171.1934  135.8203 O   0  0  0  0  0  0  0  0  0  0  0  0
  150.2240  168.9564  132.9823 C   0  0  1  0  0  0  0  0  0  0  0  0
  151.1448  167.8931  133.3702 C   0  0  2  0  0  0  0  0  0  0  0  0
  151.3158  167.1022  132.1486 O   0  0  0  0  0  0  0  0  0  0  0  0
  150.5739  166.8727  134.3170 C   0  0  2  0  0  0  0  0  0  0  0  0
  151.3888  165.6918  134.1497 O   0  0  0  0  0  0  0  0  0  0  0  0
  152.5735  165.6521  133.4777 C   0  0  0  0  0  0  0  0  0  0  0  0
  153.9129  165.6357  134.1207 C   0  0  0  0  0  0  0  0  0  0  0  0
  152.5552  165.6278  132.2216 O   0  0  0  0  0  0  0  0  0  0  0  0
  149.1262  166.5747  134.0929 C   0  0  1  0  0  0  0  0  0  0  0  0
  148.3867  166.6700  135.4576 C   0  0  0  0  0  0  0  0  0  0  0  0
  147.9499  165.3443  135.9707 C   0  0  0  0  0  0  0  0  0  0  0  0
  149.0540  165.1140  133.8245 C   0  0  0  0  0  0  0  0  0  0  0  0
  148.1397  164.4998  133.1130 C   0  0  0  0  0  0  0  0  0  0  0  0
  147.0748  165.3636  132.5205 C   0  0  0  0  0  0  0  0  0  0  0  0
  152.5007  168.3541  133.6109 C   0  0  0  0  0  0  0  0  0  0  0  0
  153.0872  169.1811  132.7969 O   0  0  0  0  0  0  0  0  0  0  0  0
  153.2723  167.9902  134.6703 O   0  0  0  0  0  0  0  0  0  0  0  0
  153.1576  168.4687  135.9874 C   0  0  0  0  0  0  0  0  0  0  0  0
  1  2  1  6
  2  3  1  0
  3  4  1  0
  5  4  1  6
  5  6  1  0
  6  7  2  0
  7  8  1  0
  8  9  2  0
  9 10  1  0
 10 11  1  0
  9 12  1  0
 12 13  2  0
 12 14  1  0
 14 15  1  0
 16 15  1  6
 16 17  1  0
 17 18  1  0
 18 19  1  6
 19 20  1  0
 20 21  1  6
 20 22  1  0
 22 23  1  0
 20 24  1  0
 18 25  1  0
 25 26  1  0
 26 27  1  0
 27 28  2  0
 28 29  1  0
 29 30  1  0
 30 31  2  0
 31 32  1  0
 32 33  2  0
 33 34  1  0
 34 35  2  0
 14 36  1  1
 36 37  2  0
 36 38  1  0
 38 39  1  0
  7 40  1  0
 40 41  1  0
 41 42  2  0
 43 40  1  1
 43 44  1  0
 44 45  1  6
 44 46  1  0
 46 47  1  6
 47 48  1  0
 48 49  1  0
 48 50  2  0
 46 51  1  0
 51 52  1  1
 52 53  1  0
 51 54  1  0
 54 55  2  0
 55 56  1  0
 44 57  1  0
 57 58  2  0
 57 59  1  0
 59 60  1  0
  5  1  1  0
 43  5  1  0
 51  1  1  0
 56  2  1  0
 13  6  1  0
 28 14  1  0
 35 30  1  0
 24 16  1  0
 35 27  1  0
M  END
$$$$
