
     RDKit          3D

 60 68  0  0  0  0  0  0  0  0999 V2000
  162.6919  147.1956  129.1219 C   0  0  2  0  0  0  0  0  0  0  0  0
  162.5592  148.0088  127.9198 N   0  0  0  0  0  0  0  0  0  0  0  0
  162.4305  147.0791  126.8210 C   0  0  0  0  0  0  0  0  0  0  0  0
  163.4964  146.0738  127.1726 C   0  0  0  0  0  0  0  0  0  0  0  0
  163.6716  146.1799  128.6601 C   0  0  1  0  0  0  0  0  0  0  0  0
  165.0861  146.5261  128.9720 C   0  0  0  0  0  0  0  0  0  0  0  0
  165.4346  145.8992  130.1366 C   0  0  0  0  0  0  0  0  0  0  0  0
  166.7027  145.9914  130.6607 C   0  0  0  0  0  0  0  0  0  0  0  0
  167.6833  146.7274  130.0325 C   0  0  0  0  0  0  0  0  0  0  0  0
  168.9501  146.8084  130.5737 O   0  0  0  0  0  0  0  0  0  0  0  0
  169.2988  146.0069  131.6792 C   0  0  0  0  0  0  0  0  0  0  0  0
  167.3705  147.3854  128.8463 C   0  0  0  0  0  0  0  0  0  0  0  0
  166.0716  147.2637  128.3453 C   0  0  0  0  0  0  0  0  0  0  0  0
  168.3637  148.1978  128.0739 C   0  0  1  0  0  0  0  0  0  0  0  0
  169.2159  147.2231  127.4662 C   0  0  0  0  0  0  0  0  0  0  0  0
  168.9738  146.2148  126.4093 C   0  0  1  0  0  0  0  0  0  0  0  0
  167.7615  146.3863  125.8045 C   0  0  0  0  0  0  0  0  0  0  0  0
  167.4978  146.4214  124.2406 N   0  0  0  0  0  0  0  0  0  0  0  0
  168.6404  145.4803  123.7960 C   0  0  0  0  0  0  0  0  0  0  0  0
  169.9437  145.6586  124.2776 C   0  0  2  0  0  0  0  0  0  0  0  0
  170.7749  146.5767  123.5842 O   0  0  0  0  0  0  0  0  0  0  0  0
  170.6136  144.3073  123.8759 C   0  0  0  0  0  0  0  0  0  0  0  0
  170.5564  144.2302  122.3741 C   0  0  0  0  0  0  0  0  0  0  0  0
  170.2484  145.8058  125.7136 C   0  0  0  0  0  0  0  0  0  0  0  0
  168.1401  147.7868  123.8822 C   0  0  0  0  0  0  0  0  0  0  0  0
  168.5429  148.6988  124.8481 C   0  0  0  0  0  0  0  0  0  0  0  0
  167.7087  149.3577  125.8469 C   0  0  0  0  0  0  0  0  0  0  0  0
  167.6411  149.1455  127.1929 C   0  0  0  0  0  0  0  0  0  0  0  0
  166.7372  150.0613  127.6802 N   0  0  0  0  0  0  0  0  0  0  0  0
  166.2276  150.8302  126.7519 C   0  0  0  0  0  0  0  0  0  0  0  0
  165.3162  151.8639  126.7003 C   0  0  0  0  0  0  0  0  0  0  0  0
  164.9890  152.4781  125.5219 C   0  0  0  0  0  0  0  0  0  0  0  0
  165.5782  152.0682  124.3173 C   0  0  0  0  0  0  0  0  0  0  0  0
  166.4895  151.0335  124.3762 C   0  0  0  0  0  0  0  0  0  0  0  0
  166.8106  150.4229  125.5726 C   0  0  0  0  0  0  0  0  0  0  0  0
  169.1545  148.9841  129.0699 C   0  0  0  0  0  0  0  0  0  0  0  0
  170.4127  149.0228  129.0747 O   0  0  0  0  0  0  0  0  0  0  0  0
  168.5166  149.6962  130.0320 O   0  0  0  0  0  0  0  0  0  0  0  0
  168.8794  150.9547  130.5512 C   0  0  0  0  0  0  0  0  0  0  0  0
  164.2262  145.2196  130.6429 N   0  0  0  0  0  0  0  0  0  0  0  0
  164.0724  145.0856  132.0282 C   0  0  0  0  0  0  0  0  0  0  0  0
  164.5927  145.7865  132.9204 O   0  0  0  0  0  0  0  0  0  0  0  0
  163.5291  144.8823  129.4301 C   0  0  1  0  0  0  0  0  0  0  0  0
  162.1504  144.4078  129.4820 C   0  0  2  0  0  0  0  0  0  0  0  0
  161.7209  144.3972  128.0811 O   0  0  0  0  0  0  0  0  0  0  0  0
  161.1700  145.3710  130.0944 C   0  0  2  0  0  0  0  0  0  0  0  0
  159.8763  144.9836  129.5820 O   0  0  0  0  0  0  0  0  0  0  0  0
  158.9434  144.2749  130.2780 C   0  0  0  0  0  0  0  0  0  0  0  0
  157.8075  143.5384  129.6658 C   0  0  0  0  0  0  0  0  0  0  0  0
  159.0310  144.2282  131.5306 O   0  0  0  0  0  0  0  0  0  0  0  0
  161.4649  146.8080  129.8061 C   0  0  1  0  0  0  0  0  0  0  0  0
  161.4272  147.5969  131.1456 C   0  0  0  0  0  0  0  0  0  0  0  0
  160.2207  148.4566  131.2749 C   0  0  0  0  0  0  0  0  0  0  0  0
  160.2545  147.3367  129.1231 C   0  0  0  0  0  0  0  0  0  0  0  0
  160.2168  148.3331  128.2715 C   0  0  0  0  0  0  0  0  0  0  0  0
  161.5232  148.9900  127.9669 C   0  0  0  0  0  0  0  0  0  0  0  0
  162.0288  143.0044  129.8347 C   0  0  0  0  0  0  0  0  0  0  0  0
  162.1942  142.0685  128.9475 O   0  0  0  0  0  0  0  0  0  0  0  0
  161.7442  142.5341  131.0789 O   0  0  0  0  0  0  0  0  0  0  0  0
  160.7274  141.6218  131.4118 C   0  0  0  0  0  0  0  0  0  0  0  0
  1  2  1  6
  2  3  1  0
  3  4  1  0
  5  4  1  6
  5  6  1  0
  6  7  2  0
  7  8  1  0
  8  9  2  0
  9 10  1  0
 10 11  1  0
  9 12  1  0
 12 13  2  0
 12 14  1  0
 14 15  1  0
 16 15  1  6
 16 17  1  0
 17 18  1  0
 18 19  1  6
 19 20  1  0
 20 21  1  6
 20 22  1  0
 22 23  1  0
 20 24  1  0
 18 25  1  0
 25 26  1  0
 26 27  1  0
 27 28  2  0
 28 29  1  0
 29 30  1  0
 30 31  2  0
 31 32  1  0
 32 33  2  0
 33 34  1  0
 34 35  2  0
 14 36  1  1
 36 37  2  0
 36 38  1  0
 38 39  1  0
  7 40  1  0
 40 41  1  0
 41 42  2  0
 43 40  1  1
 43 44  1  0
 44 45  1  6
 44 46  1  0
 46 47  1  6
 47 48  1  0
 48 49  1  0
 48 50  2  0
 46 51  1  0
 51 52  1  1
 52 53  1  0
 51 54  1  0
 54 55  2  0
 55 56  1  0
 44 57  1  0
 57 58  2  0
 57 59  1  0
 59 60  1  0
  5  1  1  0
 43  5  1  0
 51  1  1  0
 56  2  1  0
 13  6  1  0
 28 14  1  0
 35 30  1  0
 24 16  1  0
 35 27  1  0
M  END
$$$$
