
     RDKit          3D

 60 68  0  0  0  0  0  0  0  0999 V2000
  185.5142  157.3306  132.5509 C   0  0  2  0  0  0  0  0  0  0  0  0
  186.2817  158.5666  132.6342 N   0  0  0  0  0  0  0  0  0  0  0  0
  187.5758  158.1981  133.1612 C   0  0  0  0  0  0  0  0  0  0  0  0
  187.1751  157.2548  134.2658 C   0  0  0  0  0  0  0  0  0  0  0  0
  185.8287  156.7220  133.8683 C   0  0  1  0  0  0  0  0  0  0  0  0
  184.8334  157.0413  134.9290 C   0  0  0  0  0  0  0  0  0  0  0  0
  183.9374  156.0103  135.0011 C   0  0  0  0  0  0  0  0  0  0  0  0
  182.9193  155.9951  135.9255 C   0  0  0  0  0  0  0  0  0  0  0  0
  182.7544  157.0269  136.8233 C   0  0  0  0  0  0  0  0  0  0  0  0
  181.7266  156.9940  137.7435 O   0  0  0  0  0  0  0  0  0  0  0  0
  180.8337  155.9039  137.7670 C   0  0  0  0  0  0  0  0  0  0  0  0
  183.6418  158.0987  136.7823 C   0  0  0  0  0  0  0  0  0  0  0  0
  184.6645  158.0743  135.8303 C   0  0  0  0  0  0  0  0  0  0  0  0
  183.5640  159.2626  137.7216 C   0  0  1  0  0  0  0  0  0  0  0  0
  182.8886  160.2744  136.9696 C   0  0  0  0  0  0  0  0  0  0  0  0
  181.4990  160.3769  136.4687 C   0  0  1  0  0  0  0  0  0  0  0  0
  180.6960  159.3975  136.9795 C   0  0  0  0  0  0  0  0  0  0  0  0
  179.2664  159.6122  137.6328 N   0  0  0  0  0  0  0  0  0  0  0  0
  178.8287  160.8519  136.8202 C   0  0  0  0  0  0  0  0  0  0  0  0
  179.6868  161.9486  136.6686 C   0  0  2  0  0  0  0  0  0  0  0  0
  179.6742  162.9325  137.6914 O   0  0  0  0  0  0  0  0  0  0  0  0
  178.9926  162.7317  135.5105 C   0  0  0  0  0  0  0  0  0  0  0  0
  177.7665  161.9440  135.1351 C   0  0  0  0  0  0  0  0  0  0  0  0
  181.0876  161.8080  136.2273 C   0  0  0  0  0  0  0  0  0  0  0  0
  179.6697  160.3078  138.9589 C   0  0  0  0  0  0  0  0  0  0  0  0
  180.9869  160.3877  139.3895 C   0  0  0  0  0  0  0  0  0  0  0  0
  181.8858  159.2817  139.7007 C   0  0  0  0  0  0  0  0  0  0  0  0
  182.9618  158.8193  139.0012 C   0  0  0  0  0  0  0  0  0  0  0  0
  183.4941  157.7950  139.7500 N   0  0  0  0  0  0  0  0  0  0  0  0
  182.8402  157.5722  140.8615 C   0  0  0  0  0  0  0  0  0  0  0  0
  182.9449  156.6996  141.9242 C   0  0  0  0  0  0  0  0  0  0  0  0
  182.0624  156.7282  142.9698 C   0  0  0  0  0  0  0  0  0  0  0  0
  181.0124  157.6573  142.9907 C   0  0  0  0  0  0  0  0  0  0  0  0
  180.9137  158.5277  141.9243 C   0  0  0  0  0  0  0  0  0  0  0  0
  181.8116  158.4878  140.8757 C   0  0  0  0  0  0  0  0  0  0  0  0
  184.9674  159.7059  137.9857 C   0  0  0  0  0  0  0  0  0  0  0  0
  185.4961  159.6757  139.1276 O   0  0  0  0  0  0  0  0  0  0  0  0
  185.7330  160.1747  136.9690 O   0  0  0  0  0  0  0  0  0  0  0  0
  186.5985  161.2861  136.9881 C   0  0  0  0  0  0  0  0  0  0  0  0
  184.2825  155.0587  133.9270 N   0  0  0  0  0  0  0  0  0  0  0  0
  183.2483  154.3218  133.3369 C   0  0  0  0  0  0  0  0  0  0  0  0
  182.0217  154.5388  133.4157 O   0  0  0  0  0  0  0  0  0  0  0  0
  185.7095  155.2118  133.8238 C   0  0  1  0  0  0  0  0  0  0  0  0
  186.4330  154.6236  132.7016 C   0  0  2  0  0  0  0  0  0  0  0  0
  187.7845  155.1781  132.8148 O   0  0  0  0  0  0  0  0  0  0  0  0
  186.0124  155.1197  131.3448 C   0  0  2  0  0  0  0  0  0  0  0  0
  187.1360  154.8629  130.4741 O   0  0  0  0  0  0  0  0  0  0  0  0
  188.3710  154.4674  130.8927 C   0  0  0  0  0  0  0  0  0  0  0  0
  188.6242  153.4984  131.9901 C   0  0  0  0  0  0  0  0  0  0  0  0
  189.3838  154.9453  130.3230 O   0  0  0  0  0  0  0  0  0  0  0  0
  185.6170  156.5611  131.3174 C   0  0  1  0  0  0  0  0  0  0  0  0
  184.2453  156.6821  130.5950 C   0  0  0  0  0  0  0  0  0  0  0  0
  184.3762  156.7415  129.1149 C   0  0  0  0  0  0  0  0  0  0  0  0
  186.5231  157.2070  130.3310 C   0  0  0  0  0  0  0  0  0  0  0  0
  186.8943  158.4646  130.3255 C   0  0  0  0  0  0  0  0  0  0  0  0
  186.3475  159.3184  131.4223 C   0  0  0  0  0  0  0  0  0  0  0  0
  186.6878  153.2019  132.8521 C   0  0  0  0  0  0  0  0  0  0  0  0
  187.8684  152.7012  132.6379 O   0  0  0  0  0  0  0  0  0  0  0  0
  185.7606  152.2775  133.2208 O   0  0  0  0  0  0  0  0  0  0  0  0
  185.3611  151.1551  132.4742 C   0  0  0  0  0  0  0  0  0  0  0  0
  1  2  1  6
  2  3  1  0
  3  4  1  0
  5  4  1  1
  5  6  1  0
  6  7  2  0
  7  8  1  0
  8  9  2  0
  9 10  1  0
 10 11  1  0
  9 12  1  0
 12 13  2  0
 12 14  1  0
 14 15  1  0
 16 15  1  1
 16 17  1  0
 17 18  1  0
 18 19  1  6
 19 20  1  0
 20 21  1  1
 20 22  1  0
 22 23  1  0
 20 24  1  0
 18 25  1  0
 25 26  1  0
 26 27  1  0
 27 28  2  0
 28 29  1  0
 29 30  1  0
 30 31  2  0
 31 32  1  0
 32 33  2  0
 33 34  1  0
 34 35  2  0
 14 36  1  1
 36 37  2  0
 36 38  1  0
 38 39  1  0
  7 40  1  0
 40 41  1  0
 41 42  2  0
 43 40  1  6
 43 44  1  0
 44 45  1  1
 44 46  1  0
 46 47  1  6
 47 48  1  0
 48 49  1  0
 48 50  2  0
 46 51  1  0
 51 52  1  6
 52 53  1  0
 51 54  1  0
 54 55  2  0
 55 56  1  0
 44 57  1  0
 57 58  2  0
 57 59  1  0
 59 60  1  0
  5  1  1  0
 43  5  1  0
 51  1  1  0
 56  2  1  0
 13  6  1  0
 28 14  1  0
 35 30  1  0
 24 16  1  0
 35 27  1  0
M  END
$$$$
