
     RDKit          3D

 60 68  0  0  0  0  0  0  0  0999 V2000
  163.2457  148.1815  127.6306 C   0  0  2  0  0  0  0  0  0  0  0  0
  163.4254  148.7837  126.3157 N   0  0  0  0  0  0  0  0  0  0  0  0
  164.2597  147.8703  125.5689 C   0  0  0  0  0  0  0  0  0  0  0  0
  165.2994  147.5242  126.6032 C   0  0  0  0  0  0  0  0  0  0  0  0
  164.6361  147.7553  127.9303 C   0  0  1  0  0  0  0  0  0  0  0  0
  165.4154  148.7570  128.7094 C   0  0  0  0  0  0  0  0  0  0  0  0
  165.3439  148.4211  130.0333 C   0  0  0  0  0  0  0  0  0  0  0  0
  166.0068  149.1376  131.0021 C   0  0  0  0  0  0  0  0  0  0  0  0
  166.7747  150.2348  130.6790 C   0  0  0  0  0  0  0  0  0  0  0  0
  167.4324  150.9413  131.6651 O   0  0  0  0  0  0  0  0  0  0  0  0
  167.2874  150.5701  133.0168 C   0  0  0  0  0  0  0  0  0  0  0  0
  166.8719  150.6144  129.3432 C   0  0  0  0  0  0  0  0  0  0  0  0
  166.1857  149.8581  128.3892 C   0  0  0  0  0  0  0  0  0  0  0  0
  167.6917  151.7792  128.8804 C   0  0  1  0  0  0  0  0  0  0  0  0
  167.4961  151.8039  127.4639 C   0  0  0  0  0  0  0  0  0  0  0  0
  166.3080  152.1006  126.6315 C   0  0  1  0  0  0  0  0  0  0  0  0
  165.2772  152.6066  127.3705 C   0  0  0  0  0  0  0  0  0  0  0  0
  164.4295  153.9014  127.0220 N   0  0  0  0  0  0  0  0  0  0  0  0
  164.5301  153.8313  125.4813 C   0  0  0  0  0  0  0  0  0  0  0  0
  165.7652  153.6286  124.8525 C   0  0  2  0  0  0  0  0  0  0  0  0
  166.5623  154.7747  124.5966 O   0  0  0  0  0  0  0  0  0  0  0  0
  165.3215  153.2598  123.4022 C   0  0  0  0  0  0  0  0  0  0  0  0
  163.8525  152.9409  123.4713 C   0  0  0  0  0  0  0  0  0  0  0  0
  166.6872  152.5440  125.2403 C   0  0  0  0  0  0  0  0  0  0  0  0
  165.4846  155.0047  127.2950 C   0  0  0  0  0  0  0  0  0  0  0  0
  166.6944  154.7419  127.9229 C   0  0  0  0  0  0  0  0  0  0  0  0
  166.8983  154.2191  129.2694 C   0  0  0  0  0  0  0  0  0  0  0  0
  167.3178  152.9818  129.6619 C   0  0  0  0  0  0  0  0  0  0  0  0
  167.3917  153.0201  131.0353 N   0  0  0  0  0  0  0  0  0  0  0  0
  167.0502  154.1782  131.5401 C   0  0  0  0  0  0  0  0  0  0  0  0
  166.9498  154.7278  132.8009 C   0  0  0  0  0  0  0  0  0  0  0  0
  166.5439  156.0205  132.9934 C   0  0  0  0  0  0  0  0  0  0  0  0
  166.2138  156.8339  131.8999 C   0  0  0  0  0  0  0  0  0  0  0  0
  166.3167  156.2777  130.6411 C   0  0  0  0  0  0  0  0  0  0  0  0
  166.7280  154.9716  130.4615 C   0  0  0  0  0  0  0  0  0  0  0  0
  169.1212  151.4503  129.1700 C   0  0  0  0  0  0  0  0  0  0  0  0
  169.9359  152.2814  129.6499 O   0  0  0  0  0  0  0  0  0  0  0  0
  169.5974  150.2075  128.9088 O   0  0  0  0  0  0  0  0  0  0  0  0
  170.0427  149.2462  129.8375 C   0  0  0  0  0  0  0  0  0  0  0  0
  164.4414  147.2580  130.1385 N   0  0  0  0  0  0  0  0  0  0  0  0
  163.6763  147.1158  131.3026 C   0  0  0  0  0  0  0  0  0  0  0  0
  162.6247  147.7200  131.5976 O   0  0  0  0  0  0  0  0  0  0  0  0
  164.6614  146.5809  128.8880 C   0  0  1  0  0  0  0  0  0  0  0  0
  163.7766  145.4976  128.4727 C   0  0  2  0  0  0  0  0  0  0  0  0
  164.1638  145.2291  127.0852 O   0  0  0  0  0  0  0  0  0  0  0  0
  162.3306  145.8831  128.3168 C   0  0  2  0  0  0  0  0  0  0  0  0
  161.7615  144.8969  127.4280 O   0  0  0  0  0  0  0  0  0  0  0  0
  161.5316  143.5943  127.7551 C   0  0  0  0  0  0  0  0  0  0  0  0
  162.5893  142.6012  128.0759 C   0  0  0  0  0  0  0  0  0  0  0  0
  160.3456  143.1811  127.7935 O   0  0  0  0  0  0  0  0  0  0  0  0
  162.1210  147.2705  127.8011 C   0  0  1  0  0  0  0  0  0  0  0  0
  161.0948  147.9887  128.7225 C   0  0  0  0  0  0  0  0  0  0  0  0
  159.6844  147.7179  128.3365 C   0  0  0  0  0  0  0  0  0  0  0  0
  161.3317  147.1185  126.5500 C   0  0  0  0  0  0  0  0  0  0  0  0
  161.3322  147.9393  125.5275 C   0  0  0  0  0  0  0  0  0  0  0  0
  162.2162  149.1376  125.6442 C   0  0  0  0  0  0  0  0  0  0  0  0
  164.0721  144.2261  129.1089 C   0  0  0  0  0  0  0  0  0  0  0  0
  164.7018  143.2831  128.4728 O   0  0  0  0  0  0  0  0  0  0  0  0
  163.7401  143.8966  130.3862 O   0  0  0  0  0  0  0  0  0  0  0  0
  163.4763  142.6034  130.8707 C   0  0  0  0  0  0  0  0  0  0  0  0
  1  2  1  6
  2  3  1  0
  3  4  1  0
  5  4  1  6
  5  6  1  0
  6  7  2  0
  7  8  1  0
  8  9  2  0
  9 10  1  0
 10 11  1  0
  9 12  1  0
 12 13  2  0
 12 14  1  0
 14 15  1  0
 16 15  1  1
 16 17  1  0
 17 18  1  0
 18 19  1  6
 19 20  1  0
 20 21  1  6
 20 22  1  0
 22 23  1  0
 20 24  1  0
 18 25  1  0
 25 26  1  0
 26 27  1  0
 27 28  2  0
 28 29  1  0
 29 30  1  0
 30 31  2  0
 31 32  1  0
 32 33  2  0
 33 34  1  0
 34 35  2  0
 14 36  1  6
 36 37  2  0
 36 38  1  0
 38 39  1  0
  7 40  1  0
 40 41  1  0
 41 42  2  0
 43 40  1  1
 43 44  1  0
 44 45  1  6
 44 46  1  0
 46 47  1  6
 47 48  1  0
 48 49  1  0
 48 50  2  0
 46 51  1  0
 51 52  1  1
 52 53  1  0
 51 54  1  0
 54 55  2  0
 55 56  1  0
 44 57  1  0
 57 58  2  0
 57 59  1  0
 59 60  1  0
  5  1  1  0
 43  5  1  0
 51  1  1  0
 56  2  1  0
 13  6  1  0
 28 14  1  0
 35 30  1  0
 24 16  1  0
 35 27  1  0
M  END
$$$$
