
     RDKit          3D

 60 68  0  0  0  0  0  0  0  0999 V2000
  169.8116  145.8861  129.3515 C   0  0  2  0  0  0  0  0  0  0  0  0
  169.9598  145.0039  128.2011 N   0  0  0  0  0  0  0  0  0  0  0  0
  171.2907  145.2368  127.6883 C   0  0  0  0  0  0  0  0  0  0  0  0
  171.3580  146.7410  127.7443 C   0  0  0  0  0  0  0  0  0  0  0  0
  170.3772  147.1462  128.8066 C   0  0  1  0  0  0  0  0  0  0  0  0
  169.3557  148.0576  128.2204 C   0  0  0  0  0  0  0  0  0  0  0  0
  169.0040  148.9761  129.1708 C   0  0  0  0  0  0  0  0  0  0  0  0
  168.1071  149.9854  128.9099 C   0  0  0  0  0  0  0  0  0  0  0  0
  167.5170  150.1141  127.6717 C   0  0  0  0  0  0  0  0  0  0  0  0
  166.6192  151.1334  127.4288 O   0  0  0  0  0  0  0  0  0  0  0  0
  166.2429  152.0066  128.4689 C   0  0  0  0  0  0  0  0  0  0  0  0
  167.8435  149.1979  126.6757 C   0  0  0  0  0  0  0  0  0  0  0  0
  168.7616  148.1893  126.9803 C   0  0  0  0  0  0  0  0  0  0  0  0
  167.2743  149.2554  125.2916 C   0  0  1  0  0  0  0  0  0  0  0  0
  166.5989  148.0040  125.1389 C   0  0  0  0  0  0  0  0  0  0  0  0
  165.3923  147.4422  125.7876 C   0  0  1  0  0  0  0  0  0  0  0  0
  164.7281  148.3753  126.5313 C   0  0  0  0  0  0  0  0  0  0  0  0
  163.1702  148.6699  126.4801 N   0  0  0  0  0  0  0  0  0  0  0  0
  162.6827  147.2516  126.1061 C   0  0  0  0  0  0  0  0  0  0  0  0
  163.2826  146.5410  125.0587 C   0  0  2  0  0  0  0  0  0  0  0  0
  162.7942  146.7769  123.7471 O   0  0  0  0  0  0  0  0  0  0  0  0
  162.7423  145.0982  125.3093 C   0  0  0  0  0  0  0  0  0  0  0  0
  163.4393  144.2019  124.3217 C   0  0  0  0  0  0  0  0  0  0  0  0
  164.7439  146.3705  124.9470 C   0  0  0  0  0  0  0  0  0  0  0  0
  163.0625  149.3497  125.0905 C   0  0  0  0  0  0  0  0  0  0  0  0
  164.1776  149.7417  124.3627 C   0  0  0  0  0  0  0  0  0  0  0  0
  165.1947  150.7114  124.7540 C   0  0  0  0  0  0  0  0  0  0  0  0
  166.4869  150.5015  125.1379 C   0  0  0  0  0  0  0  0  0  0  0  0
  167.0310  151.7475  125.3490 N   0  0  0  0  0  0  0  0  0  0  0  0
  166.1874  152.7243  125.1329 C   0  0  0  0  0  0  0  0  0  0  0  0
  166.2163  154.1016  125.1966 C   0  0  0  0  0  0  0  0  0  0  0  0
  165.1174  154.8602  124.8969 C   0  0  0  0  0  0  0  0  0  0  0  0
  163.9146  154.2509  124.5117 C   0  0  0  0  0  0  0  0  0  0  0  0
  163.8927  152.8724  124.4497 C   0  0  0  0  0  0  0  0  0  0  0  0
  165.0094  152.1193  124.7548 C   0  0  0  0  0  0  0  0  0  0  0  0
  168.4306  149.3045  124.3449 C   0  0  0  0  0  0  0  0  0  0  0  0
  168.9500  148.2762  123.8378 O   0  0  0  0  0  0  0  0  0  0  0  0
  168.9741  150.4984  123.9999 O   0  0  0  0  0  0  0  0  0  0  0  0
  168.5738  151.3536  122.9544 C   0  0  0  0  0  0  0  0  0  0  0  0
  169.7186  148.6141  130.4105 N   0  0  0  0  0  0  0  0  0  0  0  0
  169.1056  148.9002  131.6365 C   0  0  0  0  0  0  0  0  0  0  0  0
  168.4594  149.9238  131.9408 O   0  0  0  0  0  0  0  0  0  0  0  0
  170.9323  148.0266  129.9084 C   0  0  1  0  0  0  0  0  0  0  0  0
  171.8269  147.3052  130.8074 C   0  0  2  0  0  0  0  0  0  0  0  0
  172.7992  146.6703  129.9138 O   0  0  0  0  0  0  0  0  0  0  0  0
  171.2148  146.1119  131.4895 C   0  0  2  0  0  0  0  0  0  0  0  0
  172.3264  145.2704  131.8673 O   0  0  0  0  0  0  0  0  0  0  0  0
  173.2642  145.5923  132.8021 C   0  0  0  0  0  0  0  0  0  0  0  0
  174.7060  145.8102  132.5167 C   0  0  0  0  0  0  0  0  0  0  0  0
  172.9052  145.7185  133.9996 O   0  0  0  0  0  0  0  0  0  0  0  0
  170.2267  145.3687  130.6492 C   0  0  1  0  0  0  0  0  0  0  0  0
  168.9324  145.1546  131.4841 C   0  0  0  0  0  0  0  0  0  0  0  0
  169.1963  144.5296  132.8074 C   0  0  0  0  0  0  0  0  0  0  0  0
  170.7454  143.9783  130.5553 C   0  0  0  0  0  0  0  0  0  0  0  0
  170.5271  143.1329  129.5770 C   0  0  0  0  0  0  0  0  0  0  0  0
  169.6743  143.6283  128.4553 C   0  0  0  0  0  0  0  0  0  0  0  0
  172.6815  148.1717  131.5997 C   0  0  0  0  0  0  0  0  0  0  0  0
  173.8618  147.7863  131.9853 O   0  0  0  0  0  0  0  0  0  0  0  0
  172.3571  149.4287  132.0055 O   0  0  0  0  0  0  0  0  0  0  0  0
  172.9310  150.1310  133.0799 C   0  0  0  0  0  0  0  0  0  0  0  0
  1  2  1  6
  2  3  1  0
  3  4  1  0
  5  4  1  6
  5  6  1  0
  6  7  2  0
  7  8  1  0
  8  9  2  0
  9 10  1  0
 10 11  1  0
  9 12  1  0
 12 13  2  0
 12 14  1  0
 14 15  1  0
 16 15  1  6
 16 17  1  0
 17 18  1  0
 18 19  1  6
 19 20  1  0
 20 21  1  6
 20 22  1  0
 22 23  1  0
 20 24  1  0
 18 25  1  0
 25 26  1  0
 26 27  1  0
 27 28  2  0
 28 29  1  0
 29 30  1  0
 30 31  2  0
 31 32  1  0
 32 33  2  0
 33 34  1  0
 34 35  2  0
 14 36  1  6
 36 37  2  0
 36 38  1  0
 38 39  1  0
  7 40  1  0
 40 41  1  0
 41 42  2  0
 43 40  1  1
 43 44  1  0
 44 45  1  6
 44 46  1  0
 46 47  1  6
 47 48  1  0
 48 49  1  0
 48 50  2  0
 46 51  1  0
 51 52  1  1
 52 53  1  0
 51 54  1  0
 54 55  2  0
 55 56  1  0
 44 57  1  0
 57 58  2  0
 57 59  1  0
 59 60  1  0
  5  1  1  0
 43  5  1  0
 51  1  1  0
 56  2  1  0
 13  6  1  0
 28 14  1  0
 35 30  1  0
 24 16  1  0
 35 27  1  0
M  END
$$$$
