
     RDKit          3D

 60 68  0  0  0  0  0  0  0  0999 V2000
  189.0614  160.6234  121.4280 C   0  0  2  0  0  0  0  0  0  0  0  0
  187.7702  160.0203  121.7332 N   0  0  0  0  0  0  0  0  0  0  0  0
  186.8388  161.1171  121.8663 C   0  0  0  0  0  0  0  0  0  0  0  0
  187.6521  162.0828  122.6886 C   0  0  0  0  0  0  0  0  0  0  0  0
  189.0863  161.7335  122.4137 C   0  0  1  0  0  0  0  0  0  0  0  0
  189.7684  161.3858  123.6910 C   0  0  0  0  0  0  0  0  0  0  0  0
  191.0638  161.8186  123.6176 C   0  0  0  0  0  0  0  0  0  0  0  0
  191.9373  161.6806  124.6707 C   0  0  0  0  0  0  0  0  0  0  0  0
  191.5436  161.0930  125.8529 C   0  0  0  0  0  0  0  0  0  0  0  0
  192.4345  160.9632  126.8987 O   0  0  0  0  0  0  0  0  0  0  0  0
  193.6785  160.3336  126.6932 C   0  0  0  0  0  0  0  0  0  0  0  0
  190.2344  160.6344  125.9694 C   0  0  0  0  0  0  0  0  0  0  0  0
  189.3773  160.7965  124.8776 C   0  0  0  0  0  0  0  0  0  0  0  0
  189.6979  159.9963  127.2136 C   0  0  1  0  0  0  0  0  0  0  0  0
  190.8671  159.6393  127.9558 C   0  0  0  0  0  0  0  0  0  0  0  0
  191.9043  160.4560  128.6264 C   0  0  1  0  0  0  0  0  0  0  0  0
  191.5635  161.7774  128.6768 C   0  0  0  0  0  0  0  0  0  0  0  0
  191.6227  162.7058  129.9618 N   0  0  0  0  0  0  0  0  0  0  0  0
  192.7989  162.0144  130.6881 C   0  0  0  0  0  0  0  0  0  0  0  0
  192.8259  160.6226  130.8439 C   0  0  2  0  0  0  0  0  0  0  0  0
  192.1484  160.0790  131.9663 O   0  0  0  0  0  0  0  0  0  0  0  0
  194.3103  160.3832  131.2629 C   0  0  0  0  0  0  0  0  0  0  0  0
  194.4362  160.8584  132.6852 C   0  0  0  0  0  0  0  0  0  0  0  0
  192.6079  159.6917  129.7202 C   0  0  0  0  0  0  0  0  0  0  0  0
  190.4415  162.1221  130.7797 C   0  0  0  0  0  0  0  0  0  0  0  0
  189.5371  161.2162  130.2426 C   0  0  0  0  0  0  0  0  0  0  0  0
  188.6442  161.4230  129.1078 C   0  0  0  0  0  0  0  0  0  0  0  0
  188.7157  160.9080  127.8465 C   0  0  0  0  0  0  0  0  0  0  0  0
  187.6053  161.3723  127.1796 N   0  0  0  0  0  0  0  0  0  0  0  0
  186.8425  162.1397  127.9157 C   0  0  0  0  0  0  0  0  0  0  0  0
  185.6648  162.8365  127.7446 C   0  0  0  0  0  0  0  0  0  0  0  0
  185.1105  163.5742  128.7552 C   0  0  0  0  0  0  0  0  0  0  0  0
  185.7326  163.6442  130.0100 C   0  0  0  0  0  0  0  0  0  0  0  0
  186.9106  162.9444  130.1744 C   0  0  0  0  0  0  0  0  0  0  0  0
  187.4586  162.2036  129.1457 C   0  0  0  0  0  0  0  0  0  0  0  0
  188.9867  158.7497  126.7940 C   0  0  0  0  0  0  0  0  0  0  0  0
  187.9805  158.2941  127.3978 O   0  0  0  0  0  0  0  0  0  0  0  0
  189.4249  158.0483  125.7190 O   0  0  0  0  0  0  0  0  0  0  0  0
  190.6585  157.3839  125.5724 C   0  0  0  0  0  0  0  0  0  0  0  0
  191.2636  162.3637  122.2606 N   0  0  0  0  0  0  0  0  0  0  0  0
  192.5353  162.2575  121.6843 C   0  0  0  0  0  0  0  0  0  0  0  0
  192.8602  161.5888  120.6817 O   0  0  0  0  0  0  0  0  0  0  0  0
  189.9589  162.8777  121.9378 C   0  0  1  0  0  0  0  0  0  0  0  0
  189.6485  163.2916  120.5735 C   0  0  2  0  0  0  0  0  0  0  0  0
  188.2019  163.5241  120.5888 O   0  0  0  0  0  0  0  0  0  0  0  0
  189.7726  162.2078  119.5373 C   0  0  2  0  0  0  0  0  0  0  0  0
  188.9462  162.6339  118.4318 O   0  0  0  0  0  0  0  0  0  0  0  0
  188.1366  163.7299  118.4419 C   0  0  0  0  0  0  0  0  0  0  0  0
  188.1830  164.8089  119.4623 C   0  0  0  0  0  0  0  0  0  0  0  0
  187.2804  163.8570  117.5311 O   0  0  0  0  0  0  0  0  0  0  0  0
  189.3785  160.8503  120.0237 C   0  0  1  0  0  0  0  0  0  0  0  0
  190.5049  159.8462  119.6480 C   0  0  0  0  0  0  0  0  0  0  0  0
  190.4597  159.4366  118.2192 C   0  0  0  0  0  0  0  0  0  0  0  0
  188.2807  160.4051  119.1249 C   0  0  0  0  0  0  0  0  0  0  0  0
  187.3204  159.5657  119.4295 C   0  0  0  0  0  0  0  0  0  0  0  0
  187.3438  159.0121  120.8166 C   0  0  0  0  0  0  0  0  0  0  0  0
  190.1521  164.6109  120.2350 C   0  0  0  0  0  0  0  0  0  0  0  0
  189.6104  165.6866  120.7249 O   0  0  0  0  0  0  0  0  0  0  0  0
  191.2026  164.8565  119.4065 O   0  0  0  0  0  0  0  0  0  0  0  0
  192.5438  164.5018  119.6348 C   0  0  0  0  0  0  0  0  0  0  0  0
  1  2  1  6
  2  3  1  0
  3  4  1  0
  5  4  1  1
  5  6  1  0
  6  7  2  0
  7  8  1  0
  8  9  2  0
  9 10  1  0
 10 11  1  0
  9 12  1  0
 12 13  2  0
 12 14  1  0
 14 15  1  0
 16 15  1  1
 16 17  1  0
 17 18  1  0
 18 19  1  1
 19 20  1  0
 20 21  1  1
 20 22  1  0
 22 23  1  0
 20 24  1  0
 18 25  1  0
 25 26  1  0
 26 27  1  0
 27 28  2  0
 28 29  1  0
 29 30  1  0
 30 31  2  0
 31 32  1  0
 32 33  2  0
 33 34  1  0
 34 35  2  0
 14 36  1  6
 36 37  2  0
 36 38  1  0
 38 39  1  0
  7 40  1  0
 40 41  1  0
 41 42  2  0
 43 40  1  6
 43 44  1  0
 44 45  1  1
 44 46  1  0
 46 47  1  6
 47 48  1  0
 48 49  1  0
 48 50  2  0
 46 51  1  0
 51 52  1  6
 52 53  1  0
 51 54  1  0
 54 55  2  0
 55 56  1  0
 44 57  1  0
 57 58  2  0
 57 59  1  0
 59 60  1  0
  5  1  1  0
 43  5  1  0
 51  1  1  0
 56  2  1  0
 13  6  1  0
 28 14  1  0
 35 30  1  0
 24 16  1  0
 35 27  1  0
M  END
$$$$
