
     RDKit          3D

 60 68  0  0  0  0  0  0  0  0999 V2000
  126.7265  138.1043  133.3199 C   0  0  2  0  0  0  0  0  0  0  0  0
  127.0356  136.8293  132.6855 N   0  0  0  0  0  0  0  0  0  0  0  0
  127.7274  136.0446  133.6824 C   0  0  0  0  0  0  0  0  0  0  0  0
  128.6699  137.0738  134.2508 C   0  0  0  0  0  0  0  0  0  0  0  0
  128.0202  138.4012  133.9854 C   0  0  1  0  0  0  0  0  0  0  0  0
  128.9333  139.2489  133.1696 C   0  0  0  0  0  0  0  0  0  0  0  0
  128.7743  140.5500  133.5602 C   0  0  0  0  0  0  0  0  0  0  0  0
  129.5211  141.5688  133.0164 C   0  0  0  0  0  0  0  0  0  0  0  0
  130.4663  141.3216  132.0452 C   0  0  0  0  0  0  0  0  0  0  0  0
  131.2060  142.3570  131.5112 O   0  0  0  0  0  0  0  0  0  0  0  0
  131.0998  143.6538  132.0526 C   0  0  0  0  0  0  0  0  0  0  0  0
  130.6581  140.0115  131.6152 C   0  0  0  0  0  0  0  0  0  0  0  0
  129.8815  139.0049  132.1952 C   0  0  0  0  0  0  0  0  0  0  0  0
  131.6692  139.6296  130.5784 C   0  0  1  0  0  0  0  0  0  0  0  0
  132.9251  139.7594  131.2500 C   0  0  0  0  0  0  0  0  0  0  0  0
  133.5383  138.9990  132.3628 C   0  0  1  0  0  0  0  0  0  0  0  0
  132.8305  137.8709  132.6645 C   0  0  0  0  0  0  0  0  0  0  0  0
  133.4332  136.4149  132.8485 N   0  0  0  0  0  0  0  0  0  0  0  0
  134.8305  136.8121  133.3764 C   0  0  0  0  0  0  0  0  0  0  0  0
  135.5898  137.7932  132.7259 C   0  0  2  0  0  0  0  0  0  0  0  0
  136.4012  137.3752  131.6390 O   0  0  0  0  0  0  0  0  0  0  0  0
  136.6832  138.1034  133.7958 C   0  0  0  0  0  0  0  0  0  0  0  0
  136.6168  136.9943  134.8106 C   0  0  0  0  0  0  0  0  0  0  0  0
  135.0424  139.1156  132.3676 C   0  0  0  0  0  0  0  0  0  0  0  0
  133.8026  136.0807  131.3799 C   0  0  0  0  0  0  0  0  0  0  0  0
  133.3920  136.8640  130.3100 C   0  0  0  0  0  0  0  0  0  0  0  0
  132.0230  137.1511  129.8962 C   0  0  0  0  0  0  0  0  0  0  0  0
  131.3108  138.3092  130.0087 C   0  0  0  0  0  0  0  0  0  0  0  0
  130.0910  138.0675  129.4197 N   0  0  0  0  0  0  0  0  0  0  0  0
  129.9752  136.8521  128.9487 C   0  0  0  0  0  0  0  0  0  0  0  0
  129.0043  136.1223  128.2954 C   0  0  0  0  0  0  0  0  0  0  0  0
  129.2072  134.8199  127.9275 C   0  0  0  0  0  0  0  0  0  0  0  0
  130.4238  134.1815  128.2082 C   0  0  0  0  0  0  0  0  0  0  0  0
  131.3909  134.9177  128.8618 C   0  0  0  0  0  0  0  0  0  0  0  0
  131.1726  136.2315  129.2271 C   0  0  0  0  0  0  0  0  0  0  0  0
  131.5889  140.6533  129.4915 C   0  0  0  0  0  0  0  0  0  0  0  0
  132.5714  141.3520  129.1292 O   0  0  0  0  0  0  0  0  0  0  0  0
  130.4143  140.8690  128.8486 O   0  0  0  0  0  0  0  0  0  0  0  0
  129.5485  141.9715  128.9896 C   0  0  0  0  0  0  0  0  0  0  0  0
  127.6910  140.5737  134.5623 N   0  0  0  0  0  0  0  0  0  0  0  0
  126.8839  141.7154  134.6390 C   0  0  0  0  0  0  0  0  0  0  0  0
  126.5228  142.4534  133.6994 O   0  0  0  0  0  0  0  0  0  0  0  0
  127.8285  139.2901  135.1979 C   0  0  1  0  0  0  0  0  0  0  0  0
  126.7889  138.7992  136.0962 C   0  0  2  0  0  0  0  0  0  0  0  0
  127.1617  137.4050  136.3495 O   0  0  0  0  0  0  0  0  0  0  0  0
  125.4300  138.6426  135.4694 C   0  0  2  0  0  0  0  0  0  0  0  0
  124.7295  137.6896  136.2986 O   0  0  0  0  0  0  0  0  0  0  0  0
  124.9968  137.4579  137.6145 C   0  0  0  0  0  0  0  0  0  0  0  0
  124.1162  137.8590  138.7421 C   0  0  0  0  0  0  0  0  0  0  0  0
  126.0610  136.8636  137.9194 O   0  0  0  0  0  0  0  0  0  0  0  0
  125.4637  138.2042  134.0406 C   0  0  1  0  0  0  0  0  0  0  0  0
  124.5462  139.1489  133.2137 C   0  0  0  0  0  0  0  0  0  0  0  0
  123.2212  138.5459  132.9102 C   0  0  0  0  0  0  0  0  0  0  0  0
  124.6920  136.9340  133.9925 C   0  0  0  0  0  0  0  0  0  0  0  0
  124.8529  135.9604  133.1289 C   0  0  0  0  0  0  0  0  0  0  0  0
  125.9181  136.1599  132.1011 C   0  0  0  0  0  0  0  0  0  0  0  0
  126.8558  139.3660  137.4315 C   0  0  0  0  0  0  0  0  0  0  0  0
  126.7315  138.6195  138.4888 O   0  0  0  0  0  0  0  0  0  0  0  0
  127.0507  140.6826  137.7117 O   0  0  0  0  0  0  0  0  0  0  0  0
  128.2079  141.2524  138.2714 C   0  0  0  0  0  0  0  0  0  0  0  0
  1  2  1  1
  2  3  1  0
  3  4  1  0
  5  4  1  1
  5  6  1  0
  6  7  2  0
  7  8  1  0
  8  9  2  0
  9 10  1  0
 10 11  1  0
  9 12  1  0
 12 13  2  0
 12 14  1  0
 14 15  1  0
 16 15  1  6
 16 17  1  0
 17 18  1  0
 18 19  1  1
 19 20  1  0
 20 21  1  6
 20 22  1  0
 22 23  1  0
 20 24  1  0
 18 25  1  0
 25 26  1  0
 26 27  1  0
 27 28  2  0
 28 29  1  0
 29 30  1  0
 30 31  2  0
 31 32  1  0
 32 33  2  0
 33 34  1  0
 34 35  2  0
 14 36  1  6
 36 37  2  0
 36 38  1  0
 38 39  1  0
  7 40  1  0
 40 41  1  0
 41 42  2  0
 43 40  1  6
 43 44  1  0
 44 45  1  1
 44 46  1  0
 46 47  1  1
 47 48  1  0
 48 49  1  0
 48 50  2  0
 46 51  1  0
 51 52  1  6
 52 53  1  0
 51 54  1  0
 54 55  2  0
 55 56  1  0
 44 57  1  0
 57 58  2  0
 57 59  1  0
 59 60  1  0
  5  1  1  0
 43  5  1  0
 51  1  1  0
 56  2  1  0
 13  6  1  0
 28 14  1  0
 35 30  1  0
 24 16  1  0
 35 27  1  0
M  END
$$$$
