
     RDKit          3D

 60 68  0  0  0  0  0  0  0  0999 V2000
  206.6621  134.2973  135.8125 C   0  0  2  0  0  0  0  0  0  0  0  0
  206.3993  133.4694  136.9826 N   0  0  0  0  0  0  0  0  0  0  0  0
  207.4169  132.4433  136.9824 C   0  0  0  0  0  0  0  0  0  0  0  0
  207.4263  132.0523  135.5272 C   0  0  0  0  0  0  0  0  0  0  0  0
  206.9114  133.2529  134.7869 C   0  0  1  0  0  0  0  0  0  0  0  0
  205.6993  132.8761  134.0080 C   0  0  0  0  0  0  0  0  0  0  0  0
  205.6958  133.5957  132.8448 C   0  0  0  0  0  0  0  0  0  0  0  0
  204.7189  133.4311  131.8909 C   0  0  0  0  0  0  0  0  0  0  0  0
  203.6921  132.5300  132.0684 C   0  0  0  0  0  0  0  0  0  0  0  0
  202.7208  132.3788  131.0999 O   0  0  0  0  0  0  0  0  0  0  0  0
  202.8034  133.1073  129.8964 C   0  0  0  0  0  0  0  0  0  0  0  0
  203.6548  131.7793  133.2401 C   0  0  0  0  0  0  0  0  0  0  0  0
  204.6679  131.9741  134.1828 C   0  0  0  0  0  0  0  0  0  0  0  0
  202.5944  130.7613  133.5271 C   0  0  1  0  0  0  0  0  0  0  0  0
  203.3029  129.6822  134.1427 C   0  0  0  0  0  0  0  0  0  0  0  0
  203.9963  129.5662  135.4459 C   0  0  1  0  0  0  0  0  0  0  0  0
  203.7500  130.6380  136.2553 C   0  0  0  0  0  0  0  0  0  0  0  0
  203.3049  130.5730  137.7767 N   0  0  0  0  0  0  0  0  0  0  0  0
  204.0058  129.2506  138.1625 C   0  0  0  0  0  0  0  0  0  0  0  0
  203.8764  128.1104  137.3591 C   0  0  2  0  0  0  0  0  0  0  0  0
  202.7478  127.2796  137.5834 O   0  0  0  0  0  0  0  0  0  0  0  0
  205.0155  127.2019  137.9192 C   0  0  0  0  0  0  0  0  0  0  0  0
  205.7874  128.0395  138.9026 C   0  0  0  0  0  0  0  0  0  0  0  0
  204.1087  128.1328  135.9024 C   0  0  0  0  0  0  0  0  0  0  0  0
  201.8524  130.0532  137.6181 C   0  0  0  0  0  0  0  0  0  0  0  0
  201.2152  129.9819  136.3870 C   0  0  0  0  0  0  0  0  0  0  0  0
  200.9157  131.0840  135.4794 C   0  0  0  0  0  0  0  0  0  0  0  0
  201.4937  131.4017  134.2852 C   0  0  0  0  0  0  0  0  0  0  0  0
  200.8122  132.4984  133.8096 N   0  0  0  0  0  0  0  0  0  0  0  0
  199.8552  132.8992  134.6071 C   0  0  0  0  0  0  0  0  0  0  0  0
  198.9131  133.9063  134.6093 C   0  0  0  0  0  0  0  0  0  0  0  0
  198.0231  134.0583  135.6378 C   0  0  0  0  0  0  0  0  0  0  0  0
  198.0442  133.1833  136.7334 C   0  0  0  0  0  0  0  0  0  0  0  0
  198.9893  132.1777  136.7245 C   0  0  0  0  0  0  0  0  0  0  0  0
  199.8813  132.0359  135.6797 C   0  0  0  0  0  0  0  0  0  0  0  0
  202.0590  130.3039  132.2080 C   0  0  0  0  0  0  0  0  0  0  0  0
  200.8316  130.2930  131.9290 O   0  0  0  0  0  0  0  0  0  0  0  0
  202.9093  129.8673  131.2457 O   0  0  0  0  0  0  0  0  0  0  0  0
  203.3470  128.5471  131.0216 C   0  0  0  0  0  0  0  0  0  0  0  0
  206.8495  134.5147  132.8988 N   0  0  0  0  0  0  0  0  0  0  0  0
  206.7425  135.7515  132.2511 C   0  0  0  0  0  0  0  0  0  0  0  0
  207.2733  136.0921  131.1740 O   0  0  0  0  0  0  0  0  0  0  0  0
  207.8037  133.7690  133.6759 C   0  0  1  0  0  0  0  0  0  0  0  0
  209.0099  134.4177  134.1791 C   0  0  2  0  0  0  0  0  0  0  0  0
  209.5933  133.4324  135.0933 O   0  0  0  0  0  0  0  0  0  0  0  0
  208.7672  135.5825  135.1001 C   0  0  2  0  0  0  0  0  0  0  0  0
  209.9787  135.7216  135.8745 O   0  0  0  0  0  0  0  0  0  0  0  0
  211.0765  134.9236  135.7528 C   0  0  0  0  0  0  0  0  0  0  0  0
  211.1965  133.5546  136.3177 C   0  0  0  0  0  0  0  0  0  0  0  0
  212.0721  135.3579  135.1211 O   0  0  0  0  0  0  0  0  0  0  0  0
  207.5698  135.4250  135.9811 C   0  0  1  0  0  0  0  0  0  0  0  0
  206.7090  136.7159  135.8777 C   0  0  0  0  0  0  0  0  0  0  0  0
  207.3572  137.8939  136.5129 C   0  0  0  0  0  0  0  0  0  0  0  0
  208.0802  135.5267  137.3740 C   0  0  0  0  0  0  0  0  0  0  0  0
  207.5441  134.9809  138.4389 C   0  0  0  0  0  0  0  0  0  0  0  0
  206.3019  134.1820  138.2160 C   0  0  0  0  0  0  0  0  0  0  0  0
  210.0598  134.5500  133.1846 C   0  0  0  0  0  0  0  0  0  0  0  0
  210.7408  133.5188  132.7806 O   0  0  0  0  0  0  0  0  0  0  0  0
  210.4285  135.7161  132.5892 O   0  0  0  0  0  0  0  0  0  0  0  0
  210.3684  136.0045  131.2144 C   0  0  0  0  0  0  0  0  0  0  0  0
  1  2  1  1
  2  3  1  0
  3  4  1  0
  5  4  1  1
  5  6  1  0
  6  7  2  0
  7  8  1  0
  8  9  2  0
  9 10  1  0
 10 11  1  0
  9 12  1  0
 12 13  2  0
 12 14  1  0
 14 15  1  0
 16 15  1  6
 16 17  1  0
 17 18  1  0
 18 19  1  1
 19 20  1  0
 20 21  1  6
 20 22  1  0
 22 23  1  0
 20 24  1  0
 18 25  1  0
 25 26  1  0
 26 27  1  0
 27 28  2  0
 28 29  1  0
 29 30  1  0
 30 31  2  0
 31 32  1  0
 32 33  2  0
 33 34  1  0
 34 35  2  0
 14 36  1  6
 36 37  2  0
 36 38  1  0
 38 39  1  0
  7 40  1  0
 40 41  1  0
 41 42  2  0
 43 40  1  1
 43 44  1  0
 44 45  1  1
 44 46  1  0
 46 47  1  1
 47 48  1  0
 48 49  1  0
 48 50  2  0
 46 51  1  0
 51 52  1  6
 52 53  1  0
 51 54  1  0
 54 55  2  0
 55 56  1  0
 44 57  1  0
 57 58  2  0
 57 59  1  0
 59 60  1  0
  5  1  1  0
 43  5  1  0
 51  1  1  0
 56  2  1  0
 13  6  1  0
 28 14  1  0
 35 30  1  0
 24 16  1  0
 35 27  1  0
M  END
$$$$
