
     RDKit          3D

 39 45  0  0  0  0  0  0  0  0999 V2000
  207.9007  175.0056  144.9599 C   0  0  0  0  0  0  0  0  0  0  0  0
  206.6937  175.6221  144.4980 N   0  0  0  0  0  0  0  0  0  0  0  0
  205.8465  174.6346  143.9177 C   0  0  0  0  0  0  0  0  0  0  0  0
  204.7181  175.0967  143.0837 C   0  0  0  0  0  0  0  0  0  0  0  0
  204.7033  176.4899  142.6180 C   0  0  0  0  0  0  0  0  0  0  0  0
  204.9545  176.6723  141.1031 C   0  0  0  0  0  0  0  0  0  0  0  0
  204.5976  178.0809  141.0568 O   0  0  0  0  0  0  0  0  0  0  0  0
  203.3716  178.1673  141.7724 C   0  0  0  0  0  0  0  0  0  0  0  0
  202.2822  179.0255  141.6298 C   0  0  0  0  0  0  0  0  0  0  0  0
  201.1691  178.9071  142.4520 C   0  0  0  0  0  0  0  0  0  0  0  0
  201.2015  177.8874  143.4196 C   0  0  0  0  0  0  0  0  0  0  0  0
  202.2812  177.0752  143.5316 C   0  0  0  0  0  0  0  0  0  0  0  0
  203.3974  177.1775  142.7283 C   0  0  0  0  0  0  0  0  0  0  0  0
  199.8716  177.9287  144.0570 N   0  0  0  0  0  0  0  0  0  0  0  0
  199.5395  179.3492  144.0667 C   0  0  0  0  0  0  0  0  0  0  0  0
  199.8768  179.6548  142.5803 C   0  0  0  0  0  0  0  0  0  0  0  0
  199.2803  176.7516  144.4862 C   0  0  0  0  0  0  0  0  0  0  0  0
  200.0828  175.7744  144.8280 O   0  0  0  0  0  0  0  0  0  0  0  0
  197.8734  176.4394  144.5952 C   0  0  0  0  0  0  0  0  0  0  0  0
  197.4126  175.7333  145.7405 C   0  0  0  0  0  0  0  0  0  0  0  0
  196.0998  175.3063  145.8485 C   0  0  0  0  0  0  0  0  0  0  0  0
  195.1907  175.5513  144.8534 C   0  0  0  0  0  0  0  0  0  0  0  0
  195.6592  176.2493  143.7464 C   0  0  0  0  0  0  0  0  0  0  0  0
  196.9603  176.6880  143.6038 C   0  0  0  0  0  0  0  0  0  0  0  0
  193.8030  175.0427  144.8799 C   0  0  0  0  0  0  0  0  0  0  0  0
  192.9924  175.5730  145.9014 C   0  0  0  0  0  0  0  0  0  0  0  0
  193.4718  176.5967  146.8626 C   0  0  0  0  0  0  0  0  0  0  0  0
  191.6892  175.1690  146.0432 C   0  0  0  0  0  0  0  0  0  0  0  0
  191.1652  174.2168  145.1546 C   0  0  0  0  0  0  0  0  0  0  0  0
  191.9601  173.7019  144.1585 C   0  0  0  0  0  0  0  0  0  0  0  0
  193.2859  174.1217  144.0250 C   0  0  0  0  0  0  0  0  0  0  0  0
  189.7752  173.8497  145.3997 C   0  0  0  0  0  0  0  0  0  0  0  0
  188.8815  173.1860  144.6529 N   0  0  0  0  0  0  0  0  0  0  0  0
  187.7386  173.1426  145.3131 O   0  0  0  0  0  0  0  0  0  0  0  0
  187.8369  173.7481  146.4705 C   0  0  0  0  0  0  0  0  0  0  0  0
  186.7939  173.9347  147.5335 C   0  0  0  0  0  0  0  0  0  0  0  0
  189.1011  174.1905  146.5327 N   0  0  0  0  0  0  0  0  0  0  0  0
  205.7579  177.3885  143.2576 C   0  0  0  0  0  0  0  0  0  0  0  0
  207.0375  176.6008  143.4733 C   0  0  0  0  0  0  0  0  0  0  0  0
  1  2  1  0
  2  3  1  0
  3  4  1  0
  4  5  1  0
  5  6  1  0
  6  7  1  0
  7  8  1  0
  8  9  2  0
  9 10  1  0
 10 11  2  0
 11 12  1  0
 12 13  2  0
 11 14  1  0
 14 15  1  0
 15 16  1  0
 14 17  1  0
 17 18  2  0
 17 19  1  0
 19 20  2  0
 20 21  1  0
 21 22  2  0
 22 23  1  0
 23 24  2  0
 22 25  1  0
 25 26  2  0
 26 27  1  0
 26 28  1  0
 28 29  2  0
 29 30  1  0
 30 31  2  0
 29 32  1  0
 32 33  2  0
 33 34  1  0
 34 35  1  0
 35 36  1  0
 35 37  2  0
  5 38  1  0
 38 39  1  0
 39  2  1  0
 13  5  1  0
 24 19  1  0
 31 25  1  0
 37 32  1  0
 13  8  1  0
 16 10  1  0
M  END
$$$$
