
     RDKit          3D

 39 45  0  0  0  0  0  0  0  0999 V2000
  191.7761  192.5223  150.0608 C   0  0  0  0  0  0  0  0  0  0  0  0
  192.7928  192.2338  149.0945 N   0  0  0  0  0  0  0  0  0  0  0  0
  193.5803  191.1356  149.5455 C   0  0  0  0  0  0  0  0  0  0  0  0
  194.8755  190.8944  148.8771 C   0  0  0  0  0  0  0  0  0  0  0  0
  195.4460  191.9516  148.0316 C   0  0  0  0  0  0  0  0  0  0  0  0
  196.6982  192.6465  148.6149 C   0  0  0  0  0  0  0  0  0  0  0  0
  197.0511  193.3690  147.4038 O   0  0  0  0  0  0  0  0  0  0  0  0
  196.9736  192.3981  146.3675 C   0  0  0  0  0  0  0  0  0  0  0  0
  197.6803  192.2702  145.1726 C   0  0  0  0  0  0  0  0  0  0  0  0
  197.4355  191.2096  144.3098 C   0  0  0  0  0  0  0  0  0  0  0  0
  196.4519  190.2856  144.7043 C   0  0  0  0  0  0  0  0  0  0  0  0
  195.7816  190.4461  145.8718 C   0  0  0  0  0  0  0  0  0  0  0  0
  196.0066  191.4928  146.7411 C   0  0  0  0  0  0  0  0  0  0  0  0
  196.4854  189.2333  143.6708 N   0  0  0  0  0  0  0  0  0  0  0  0
  196.7788  189.9662  142.4440 C   0  0  0  0  0  0  0  0  0  0  0  0
  197.9805  190.7962  142.9764 C   0  0  0  0  0  0  0  0  0  0  0  0
  196.2418  187.9164  144.0252 C   0  0  0  0  0  0  0  0  0  0  0  0
  196.0603  187.6681  145.2985 O   0  0  0  0  0  0  0  0  0  0  0  0
  196.1757  186.7524  143.1710 C   0  0  0  0  0  0  0  0  0  0  0  0
  195.7675  185.5107  143.7313 C   0  0  0  0  0  0  0  0  0  0  0  0
  195.7937  184.3394  142.9932 C   0  0  0  0  0  0  0  0  0  0  0  0
  196.2130  184.3328  141.6891 C   0  0  0  0  0  0  0  0  0  0  0  0
  196.6004  185.5576  141.1582 C   0  0  0  0  0  0  0  0  0  0  0  0
  196.5894  186.7437  141.8644 C   0  0  0  0  0  0  0  0  0  0  0  0
  196.3427  183.0989  140.8854 C   0  0  0  0  0  0  0  0  0  0  0  0
  195.3886  182.1021  141.1643 C   0  0  0  0  0  0  0  0  0  0  0  0
  194.3037  182.2794  142.1608 C   0  0  0  0  0  0  0  0  0  0  0  0
  195.4118  180.9034  140.4977 C   0  0  0  0  0  0  0  0  0  0  0  0
  196.4004  180.6766  139.5271 C   0  0  0  0  0  0  0  0  0  0  0  0
  197.3298  181.6529  139.2579 C   0  0  0  0  0  0  0  0  0  0  0  0
  197.2952  182.8694  139.9439 C   0  0  0  0  0  0  0  0  0  0  0  0
  196.3417  179.3677  138.8867 C   0  0  0  0  0  0  0  0  0  0  0  0
  197.2823  178.6219  138.2902 N   0  0  0  0  0  0  0  0  0  0  0  0
  196.7128  177.5212  137.8342 O   0  0  0  0  0  0  0  0  0  0  0  0
  195.4315  177.5032  138.1062 C   0  0  0  0  0  0  0  0  0  0  0  0
  194.4086  176.4546  137.7795 C   0  0  0  0  0  0  0  0  0  0  0  0
  195.1924  178.6482  138.7615 N   0  0  0  0  0  0  0  0  0  0  0  0
  194.5033  193.1162  147.7419 C   0  0  0  0  0  0  0  0  0  0  0  0
  193.6544  193.4032  148.9671 C   0  0  0  0  0  0  0  0  0  0  0  0
  1  2  1  0
  2  3  1  0
  3  4  1  0
  4  5  1  0
  5  6  1  0
  6  7  1  0
  7  8  1  0
  8  9  2  0
  9 10  1  0
 10 11  2  0
 11 12  1  0
 12 13  2  0
 11 14  1  0
 14 15  1  0
 15 16  1  0
 14 17  1  0
 17 18  2  0
 17 19  1  0
 19 20  2  0
 20 21  1  0
 21 22  2  0
 22 23  1  0
 23 24  2  0
 22 25  1  0
 25 26  2  0
 26 27  1  0
 26 28  1  0
 28 29  2  0
 29 30  1  0
 30 31  2  0
 29 32  1  0
 32 33  2  0
 33 34  1  0
 34 35  1  0
 35 36  1  0
 35 37  2  0
  5 38  1  0
 38 39  1  0
 39  2  1  0
 13  5  1  0
 24 19  1  0
 31 25  1  0
 37 32  1  0
 13  8  1  0
 16 10  1  0
M  END
$$$$
