
     RDKit          3D

 39 45  0  0  0  0  0  0  0  0999 V2000
  184.8784  161.1538  116.6336 C   0  0  0  0  0  0  0  0  0  0  0  0
  186.1670  160.6792  116.2277 N   0  0  0  0  0  0  0  0  0  0  0  0
  187.1595  161.1713  117.1236 C   0  0  0  0  0  0  0  0  0  0  0  0
  188.5728  161.0873  116.7017 C   0  0  0  0  0  0  0  0  0  0  0  0
  188.8777  160.8224  115.2894 C   0  0  0  0  0  0  0  0  0  0  0  0
  189.4711  162.0225  114.5154 C   0  0  0  0  0  0  0  0  0  0  0  0
  189.8451  161.2704  113.3289 O   0  0  0  0  0  0  0  0  0  0  0  0
  190.5100  160.1160  113.8268 C   0  0  0  0  0  0  0  0  0  0  0  0
  191.5381  159.3433  113.2888 C   0  0  0  0  0  0  0  0  0  0  0  0
  192.0441  158.2496  113.9794 C   0  0  0  0  0  0  0  0  0  0  0  0
  191.4715  157.9715  115.2332 C   0  0  0  0  0  0  0  0  0  0  0  0
  190.4693  158.7430  115.7215 C   0  0  0  0  0  0  0  0  0  0  0  0
  189.9502  159.8307  115.0513 C   0  0  0  0  0  0  0  0  0  0  0  0
  192.2643  156.8493  115.7704 N   0  0  0  0  0  0  0  0  0  0  0  0
  192.5882  156.0602  114.5868 C   0  0  0  0  0  0  0  0  0  0  0  0
  193.0975  157.2237  113.6905 C   0  0  0  0  0  0  0  0  0  0  0  0
  192.5001  156.7670  117.1330 C   0  0  0  0  0  0  0  0  0  0  0  0
  192.2105  155.6314  117.7181 O   0  0  0  0  0  0  0  0  0  0  0  0
  193.0150  157.7854  118.0200 C   0  0  0  0  0  0  0  0  0  0  0  0
  192.1295  158.4019  118.9465 C   0  0  0  0  0  0  0  0  0  0  0  0
  192.5351  159.4606  119.7415 C   0  0  0  0  0  0  0  0  0  0  0  0
  193.8107  159.9545  119.6673 C   0  0  0  0  0  0  0  0  0  0  0  0
  194.6624  159.3333  118.7612 C   0  0  0  0  0  0  0  0  0  0  0  0
  194.2922  158.2780  117.9520 C   0  0  0  0  0  0  0  0  0  0  0  0
  194.2681  161.1362  120.4287 C   0  0  0  0  0  0  0  0  0  0  0  0
  194.2570  160.9852  121.8283 C   0  0  0  0  0  0  0  0  0  0  0  0
  193.8557  159.7250  122.5010 C   0  0  0  0  0  0  0  0  0  0  0  0
  194.6429  162.0155  122.6475 C   0  0  0  0  0  0  0  0  0  0  0  0
  195.0534  163.2303  122.0760 C   0  0  0  0  0  0  0  0  0  0  0  0
  195.0629  163.3731  120.7090 C   0  0  0  0  0  0  0  0  0  0  0  0
  194.6674  162.3161  119.8856 C   0  0  0  0  0  0  0  0  0  0  0  0
  195.4323  164.2616  123.0350 C   0  0  0  0  0  0  0  0  0  0  0  0
  196.0038  164.1895  124.2454 N   0  0  0  0  0  0  0  0  0  0  0  0
  196.1077  165.4136  124.7296 O   0  0  0  0  0  0  0  0  0  0  0  0
  195.6312  166.2977  123.8886 C   0  0  0  0  0  0  0  0  0  0  0  0
  195.5508  167.7900  124.0276 C   0  0  0  0  0  0  0  0  0  0  0  0
  195.2094  165.5894  122.8313 N   0  0  0  0  0  0  0  0  0  0  0  0
  187.6749  160.4198  114.4408 C   0  0  0  0  0  0  0  0  0  0  0  0
  186.4492  161.1930  114.8926 C   0  0  0  0  0  0  0  0  0  0  0  0
  1  2  1  0
  2  3  1  0
  3  4  1  0
  4  5  1  0
  5  6  1  0
  6  7  1  0
  7  8  1  0
  8  9  2  0
  9 10  1  0
 10 11  2  0
 11 12  1  0
 12 13  2  0
 11 14  1  0
 14 15  1  0
 15 16  1  0
 14 17  1  0
 17 18  2  0
 17 19  1  0
 19 20  2  0
 20 21  1  0
 21 22  2  0
 22 23  1  0
 23 24  2  0
 22 25  1  0
 25 26  2  0
 26 27  1  0
 26 28  1  0
 28 29  2  0
 29 30  1  0
 30 31  2  0
 29 32  1  0
 32 33  2  0
 33 34  1  0
 34 35  1  0
 35 36  1  0
 35 37  2  0
  5 38  1  0
 38 39  1  0
 39  2  1  0
 13  5  1  0
 24 19  1  0
 31 25  1  0
 37 32  1  0
 13  8  1  0
 16 10  1  0
M  END
$$$$
