
     RDKit          3D

 39 45  0  0  0  0  0  0  0  0999 V2000
  140.1389  172.1960  144.3847 C   0  0  0  0  0  0  0  0  0  0  0  0
  139.9963  173.5517  143.9462 N   0  0  0  0  0  0  0  0  0  0  0  0
  138.9387  174.1767  144.6676 C   0  0  0  0  0  0  0  0  0  0  0  0
  138.4034  175.4498  144.1431 C   0  0  0  0  0  0  0  0  0  0  0  0
  138.7311  175.8444  142.7666 C   0  0  0  0  0  0  0  0  0  0  0  0
  137.5503  175.7736  141.7707 C   0  0  0  0  0  0  0  0  0  0  0  0
  138.2234  176.4672  140.6848 O   0  0  0  0  0  0  0  0  0  0  0  0
  138.8068  177.6125  141.2934 C   0  0  0  0  0  0  0  0  0  0  0  0
  139.0689  178.8870  140.7927 C   0  0  0  0  0  0  0  0  0  0  0  0
  139.6429  179.8642  141.5956 C   0  0  0  0  0  0  0  0  0  0  0  0
  139.9382  179.5019  142.9218 C   0  0  0  0  0  0  0  0  0  0  0  0
  139.6735  178.2506  143.3715 C   0  0  0  0  0  0  0  0  0  0  0  0
  139.1072  177.2650  142.5908 C   0  0  0  0  0  0  0  0  0  0  0  0
  140.4254  180.7431  143.5532 N   0  0  0  0  0  0  0  0  0  0  0  0
  141.1540  181.4110  142.4801 C   0  0  0  0  0  0  0  0  0  0  0  0
  140.0665  181.2848  141.3765 C   0  0  0  0  0  0  0  0  0  0  0  0
  140.1439  180.9898  144.8870 C   0  0  0  0  0  0  0  0  0  0  0  0
  139.1509  181.8047  145.1433 O   0  0  0  0  0  0  0  0  0  0  0  0
  140.8176  180.4769  146.0583 C   0  0  0  0  0  0  0  0  0  0  0  0
  142.2390  180.4972  146.0980 C   0  0  0  0  0  0  0  0  0  0  0  0
  142.9429  179.9176  147.1402 C   0  0  0  0  0  0  0  0  0  0  0  0
  142.2940  179.3027  148.1781 C   0  0  0  0  0  0  0  0  0  0  0  0
  140.9050  179.3005  148.1241 C   0  0  0  0  0  0  0  0  0  0  0  0
  140.1709  179.8659  147.1009 C   0  0  0  0  0  0  0  0  0  0  0  0
  142.9975  178.5942  149.2682 C   0  0  0  0  0  0  0  0  0  0  0  0
  143.9271  179.3727  149.9835 C   0  0  0  0  0  0  0  0  0  0  0  0
  144.1640  180.8097  149.7000 C   0  0  0  0  0  0  0  0  0  0  0  0
  144.6571  178.8268  151.0085 C   0  0  0  0  0  0  0  0  0  0  0  0
  144.4682  177.4764  151.3426 C   0  0  0  0  0  0  0  0  0  0  0  0
  143.5594  176.7201  150.6417 C   0  0  0  0  0  0  0  0  0  0  0  0
  142.8221  177.2881  149.5998 C   0  0  0  0  0  0  0  0  0  0  0  0
  145.3007  176.9940  152.4386 C   0  0  0  0  0  0  0  0  0  0  0  0
  146.2047  177.6113  153.2124 N   0  0  0  0  0  0  0  0  0  0  0  0
  146.7148  176.7226  154.0454 O   0  0  0  0  0  0  0  0  0  0  0  0
  146.1843  175.5394  153.8589 C   0  0  0  0  0  0  0  0  0  0  0  0
  146.4647  174.2518  154.5773 C   0  0  0  0  0  0  0  0  0  0  0  0
  145.3029  175.6996  152.8614 N   0  0  0  0  0  0  0  0  0  0  0  0
  139.8051  174.9923  142.0962 C   0  0  0  0  0  0  0  0  0  0  0  0
  139.6529  173.5452  142.5291 C   0  0  0  0  0  0  0  0  0  0  0  0
  1  2  1  0
  2  3  1  0
  3  4  1  0
  4  5  1  0
  5  6  1  0
  6  7  1  0
  7  8  1  0
  8  9  2  0
  9 10  1  0
 10 11  2  0
 11 12  1  0
 12 13  2  0
 11 14  1  0
 14 15  1  0
 15 16  1  0
 14 17  1  0
 17 18  2  0
 17 19  1  0
 19 20  2  0
 20 21  1  0
 21 22  2  0
 22 23  1  0
 23 24  2  0
 22 25  1  0
 25 26  2  0
 26 27  1  0
 26 28  1  0
 28 29  2  0
 29 30  1  0
 30 31  2  0
 29 32  1  0
 32 33  2  0
 33 34  1  0
 34 35  1  0
 35 36  1  0
 35 37  2  0
  5 38  1  0
 38 39  1  0
 39  2  1  0
 13  5  1  0
 24 19  1  0
 31 25  1  0
 37 32  1  0
 13  8  1  0
 16 10  1  0
M  END
$$$$
