
     RDKit          3D

 39 45  0  0  0  0  0  0  0  0999 V2000
  199.7374  131.4061  131.4862 C   0  0  0  0  0  0  0  0  0  0  0  0
  200.5837  131.4202  132.6412 N   0  0  0  0  0  0  0  0  0  0  0  0
  201.9449  131.3099  132.2353 C   0  0  0  0  0  0  0  0  0  0  0  0
  202.9465  130.9652  133.2651 C   0  0  0  0  0  0  0  0  0  0  0  0
  202.4852  130.4350  134.5550 C   0  0  0  0  0  0  0  0  0  0  0  0
  202.7910  128.9375  134.7899 C   0  0  0  0  0  0  0  0  0  0  0  0
  202.4299  128.9259  136.1980 O   0  0  0  0  0  0  0  0  0  0  0  0
  203.0813  130.0643  136.7480 C   0  0  0  0  0  0  0  0  0  0  0  0
  203.5964  130.3031  138.0213 C   0  0  0  0  0  0  0  0  0  0  0  0
  204.2132  131.5097  138.3259 C   0  0  0  0  0  0  0  0  0  0  0  0
  204.2894  132.4609  137.2933 C   0  0  0  0  0  0  0  0  0  0  0  0
  203.7722  132.1944  136.0687 C   0  0  0  0  0  0  0  0  0  0  0  0
  203.1534  131.0051  135.7461 C   0  0  0  0  0  0  0  0  0  0  0  0
  205.0748  133.5733  137.8612 N   0  0  0  0  0  0  0  0  0  0  0  0
  204.6666  133.6019  139.2615 C   0  0  0  0  0  0  0  0  0  0  0  0
  204.8353  132.0860  139.5614 C   0  0  0  0  0  0  0  0  0  0  0  0
  205.9289  134.2964  137.0445 C   0  0  0  0  0  0  0  0  0  0  0  0
  207.2139  134.1083  137.2148 O   0  0  0  0  0  0  0  0  0  0  0  0
  205.5934  135.2615  136.0223 C   0  0  0  0  0  0  0  0  0  0  0  0
  204.3521  135.9503  136.1080 C   0  0  0  0  0  0  0  0  0  0  0  0
  203.9244  136.8002  135.1020 C   0  0  0  0  0  0  0  0  0  0  0  0
  204.6851  137.0128  133.9827 C   0  0  0  0  0  0  0  0  0  0  0  0
  205.8978  136.3362  133.9219 C   0  0  0  0  0  0  0  0  0  0  0  0
  206.3548  135.4804  134.9040 C   0  0  0  0  0  0  0  0  0  0  0  0
  204.2365  137.8399  132.8426 C   0  0  0  0  0  0  0  0  0  0  0  0
  204.0060  139.1957  133.1432 C   0  0  0  0  0  0  0  0  0  0  0  0
  204.2309  139.7730  134.4914 C   0  0  0  0  0  0  0  0  0  0  0  0
  203.5706  140.0642  132.1748 C   0  0  0  0  0  0  0  0  0  0  0  0
  203.3563  139.5881  130.8717 C   0  0  0  0  0  0  0  0  0  0  0  0
  203.5829  138.2636  130.5826 C   0  0  0  0  0  0  0  0  0  0  0  0
  204.0262  137.3893  131.5780 C   0  0  0  0  0  0  0  0  0  0  0  0
  202.8843  140.5902  129.9230 C   0  0  0  0  0  0  0  0  0  0  0  0
  202.1517  141.7008  130.0871 N   0  0  0  0  0  0  0  0  0  0  0  0
  201.9628  142.2530  128.9026 O   0  0  0  0  0  0  0  0  0  0  0  0
  202.5430  141.5561  127.9572 C   0  0  0  0  0  0  0  0  0  0  0  0
  202.5854  141.8156  126.4795 C   0  0  0  0  0  0  0  0  0  0  0  0
  203.1192  140.5201  128.5836 N   0  0  0  0  0  0  0  0  0  0  0  0
  200.9783  130.5231  134.7798 C   0  0  0  0  0  0  0  0  0  0  0  0
  200.2510  130.2690  133.4719 C   0  0  0  0  0  0  0  0  0  0  0  0
  1  2  1  0
  2  3  1  0
  3  4  1  0
  4  5  1  0
  5  6  1  0
  6  7  1  0
  7  8  1  0
  8  9  2  0
  9 10  1  0
 10 11  2  0
 11 12  1  0
 12 13  2  0
 11 14  1  0
 14 15  1  0
 15 16  1  0
 14 17  1  0
 17 18  2  0
 17 19  1  0
 19 20  2  0
 20 21  1  0
 21 22  2  0
 22 23  1  0
 23 24  2  0
 22 25  1  0
 25 26  2  0
 26 27  1  0
 26 28  1  0
 28 29  2  0
 29 30  1  0
 30 31  2  0
 29 32  1  0
 32 33  2  0
 33 34  1  0
 34 35  1  0
 35 36  1  0
 35 37  2  0
  5 38  1  0
 38 39  1  0
 39  2  1  0
 13  5  1  0
 24 19  1  0
 31 25  1  0
 37 32  1  0
 13  8  1  0
 16 10  1  0
M  END
$$$$
