
     RDKit          3D

 39 45  0  0  0  0  0  0  0  0999 V2000
  197.2918  186.7704  145.8254 C   0  0  0  0  0  0  0  0  0  0  0  0
  196.6697  188.0279  146.1120 N   0  0  0  0  0  0  0  0  0  0  0  0
  195.3153  188.0006  145.6708 C   0  0  0  0  0  0  0  0  0  0  0  0
  194.5997  189.2882  145.5589 C   0  0  0  0  0  0  0  0  0  0  0  0
  195.3752  190.5356  145.5786 C   0  0  0  0  0  0  0  0  0  0  0  0
  195.4419  191.2818  144.2258 C   0  0  0  0  0  0  0  0  0  0  0  0
  196.0298  192.5026  144.7525 O   0  0  0  0  0  0  0  0  0  0  0  0
  195.2519  192.8121  145.9021 C   0  0  0  0  0  0  0  0  0  0  0  0
  194.9202  194.0337  146.4863 C   0  0  0  0  0  0  0  0  0  0  0  0
  194.1195  194.0877  147.6199 C   0  0  0  0  0  0  0  0  0  0  0  0
  193.6676  192.8601  148.1357 C   0  0  0  0  0  0  0  0  0  0  0  0
  194.0154  191.6916  147.5429 C   0  0  0  0  0  0  0  0  0  0  0  0
  194.8114  191.6152  146.4194 C   0  0  0  0  0  0  0  0  0  0  0  0
  192.7694  193.2250  149.2478 N   0  0  0  0  0  0  0  0  0  0  0  0
  193.3926  194.4155  149.8160 C   0  0  0  0  0  0  0  0  0  0  0  0
  193.6061  195.1957  148.4886 C   0  0  0  0  0  0  0  0  0  0  0  0
  191.6547  192.4461  149.5124 C   0  0  0  0  0  0  0  0  0  0  0  0
  191.6353  191.2425  148.9960 O   0  0  0  0  0  0  0  0  0  0  0  0
  190.4790  192.7895  150.2796 C   0  0  0  0  0  0  0  0  0  0  0  0
  190.1810  194.1619  150.5038 C   0  0  0  0  0  0  0  0  0  0  0  0
  189.1358  194.5515  151.3244 C   0  0  0  0  0  0  0  0  0  0  0  0
  188.3444  193.6260  151.9518 C   0  0  0  0  0  0  0  0  0  0  0  0
  188.6475  192.2905  151.7135 C   0  0  0  0  0  0  0  0  0  0  0  0
  189.6820  191.8658  150.9041 C   0  0  0  0  0  0  0  0  0  0  0  0
  187.2735  193.9875  152.9045 C   0  0  0  0  0  0  0  0  0  0  0  0
  185.9941  193.4997  152.5776 C   0  0  0  0  0  0  0  0  0  0  0  0
  185.7335  192.6510  151.3886 C   0  0  0  0  0  0  0  0  0  0  0  0
  184.9125  193.7803  153.3732 C   0  0  0  0  0  0  0  0  0  0  0  0
  185.0921  194.5621  154.5252 C   0  0  0  0  0  0  0  0  0  0  0  0
  186.3431  195.0362  154.8407 C   0  0  0  0  0  0  0  0  0  0  0  0
  187.4366  194.7432  154.0220 C   0  0  0  0  0  0  0  0  0  0  0  0
  183.8774  194.8095  155.2935 C   0  0  0  0  0  0  0  0  0  0  0  0
  183.1390  194.0124  156.0786 N   0  0  0  0  0  0  0  0  0  0  0  0
  182.1074  194.7067  156.5230 O   0  0  0  0  0  0  0  0  0  0  0  0
  182.1314  195.9348  156.0676 C   0  0  0  0  0  0  0  0  0  0  0  0
  181.1659  197.0564  156.3170 C   0  0  0  0  0  0  0  0  0  0  0  0
  183.2298  196.0073  155.3022 N   0  0  0  0  0  0  0  0  0  0  0  0
  196.8439  190.3689  145.9583 C   0  0  0  0  0  0  0  0  0  0  0  0
  197.3771  189.0711  145.3789 C   0  0  0  0  0  0  0  0  0  0  0  0
  1  2  1  0
  2  3  1  0
  3  4  1  0
  4  5  1  0
  5  6  1  0
  6  7  1  0
  7  8  1  0
  8  9  2  0
  9 10  1  0
 10 11  2  0
 11 12  1  0
 12 13  2  0
 11 14  1  0
 14 15  1  0
 15 16  1  0
 14 17  1  0
 17 18  2  0
 17 19  1  0
 19 20  2  0
 20 21  1  0
 21 22  2  0
 22 23  1  0
 23 24  2  0
 22 25  1  0
 25 26  2  0
 26 27  1  0
 26 28  1  0
 28 29  2  0
 29 30  1  0
 30 31  2  0
 29 32  1  0
 32 33  2  0
 33 34  1  0
 34 35  1  0
 35 36  1  0
 35 37  2  0
  5 38  1  0
 38 39  1  0
 39  2  1  0
 13  5  1  0
 24 19  1  0
 31 25  1  0
 37 32  1  0
 13  8  1  0
 16 10  1  0
M  END
$$$$
