
     RDKit          3D

 39 45  0  0  0  0  0  0  0  0999 V2000
  169.1448  154.7849  129.7260 C   0  0  0  0  0  0  0  0  0  0  0  0
  169.7408  153.4856  129.8102 N   0  0  0  0  0  0  0  0  0  0  0  0
  168.7281  152.5116  130.0455 C   0  0  0  0  0  0  0  0  0  0  0  0
  169.1518  151.1713  130.4999 C   0  0  0  0  0  0  0  0  0  0  0  0
  170.5207  150.9913  131.0015 C   0  0  0  0  0  0  0  0  0  0  0  0
  170.6289  150.7478  132.5248 C   0  0  0  0  0  0  0  0  0  0  0  0
  172.0342  150.3760  132.5215 O   0  0  0  0  0  0  0  0  0  0  0  0
  172.1581  149.4384  131.4594 C   0  0  0  0  0  0  0  0  0  0  0  0
  173.0107  148.3486  131.2896 C   0  0  0  0  0  0  0  0  0  0  0  0
  172.9348  147.5544  130.1527 C   0  0  0  0  0  0  0  0  0  0  0  0
  171.9632  147.9049  129.1985 C   0  0  0  0  0  0  0  0  0  0  0  0
  171.1551  148.9753  129.3963 C   0  0  0  0  0  0  0  0  0  0  0  0
  171.2157  149.7784  130.5157 C   0  0  0  0  0  0  0  0  0  0  0  0
  172.0383  146.8446  128.1754 N   0  0  0  0  0  0  0  0  0  0  0  0
  173.4585  146.5137  128.1275 C   0  0  0  0  0  0  0  0  0  0  0  0
  173.6908  146.3593  129.6567 C   0  0  0  0  0  0  0  0  0  0  0  0
  170.8849  146.4352  127.5266 C   0  0  0  0  0  0  0  0  0  0  0  0
  170.7941  145.1644  127.2223 O   0  0  0  0  0  0  0  0  0  0  0  0
  169.7527  147.2337  127.1148 C   0  0  0  0  0  0  0  0  0  0  0  0
  168.7556  147.5594  128.0751 C   0  0  0  0  0  0  0  0  0  0  0  0
  167.5940  148.2225  127.7168 C   0  0  0  0  0  0  0  0  0  0  0  0
  167.3616  148.5939  126.4188 C   0  0  0  0  0  0  0  0  0  0  0  0
  168.3516  148.2730  125.4974 C   0  0  0  0  0  0  0  0  0  0  0  0
  169.5200  147.6114  125.8181 C   0  0  0  0  0  0  0  0  0  0  0  0
  166.1025  149.2244  125.9691 C   0  0  0  0  0  0  0  0  0  0  0  0
  164.9886  148.3651  125.9212 C   0  0  0  0  0  0  0  0  0  0  0  0
  165.0511  146.9393  126.3272 C   0  0  0  0  0  0  0  0  0  0  0  0
  163.7655  148.8254  125.5042 C   0  0  0  0  0  0  0  0  0  0  0  0
  163.6312  150.1702  125.1240 C   0  0  0  0  0  0  0  0  0  0  0  0
  164.7216  151.0057  125.1726 C   0  0  0  0  0  0  0  0  0  0  0  0
  165.9618  150.5244  125.5991 C   0  0  0  0  0  0  0  0  0  0  0  0
  162.2933  150.5530  124.6877 C   0  0  0  0  0  0  0  0  0  0  0  0
  161.8223  151.6794  124.1343 N   0  0  0  0  0  0  0  0  0  0  0  0
  160.5212  151.5418  123.9550 O   0  0  0  0  0  0  0  0  0  0  0  0
  160.1082  150.3679  124.3642 C   0  0  0  0  0  0  0  0  0  0  0  0
  158.7219  149.7931  124.3477 C   0  0  0  0  0  0  0  0  0  0  0  0
  161.2046  149.7461  124.8210 N   0  0  0  0  0  0  0  0  0  0  0  0
  171.4470  152.1821  130.7716 C   0  0  0  0  0  0  0  0  0  0  0  0
  170.6678  153.4746  130.9356 C   0  0  0  0  0  0  0  0  0  0  0  0
  1  2  1  0
  2  3  1  0
  3  4  1  0
  4  5  1  0
  5  6  1  0
  6  7  1  0
  7  8  1  0
  8  9  2  0
  9 10  1  0
 10 11  2  0
 11 12  1  0
 12 13  2  0
 11 14  1  0
 14 15  1  0
 15 16  1  0
 14 17  1  0
 17 18  2  0
 17 19  1  0
 19 20  2  0
 20 21  1  0
 21 22  2  0
 22 23  1  0
 23 24  2  0
 22 25  1  0
 25 26  2  0
 26 27  1  0
 26 28  1  0
 28 29  2  0
 29 30  1  0
 30 31  2  0
 29 32  1  0
 32 33  2  0
 33 34  1  0
 34 35  1  0
 35 36  1  0
 35 37  2  0
  5 38  1  0
 38 39  1  0
 39  2  1  0
 13  5  1  0
 24 19  1  0
 31 25  1  0
 37 32  1  0
 13  8  1  0
 16 10  1  0
M  END
$$$$
