
     RDKit          3D

 39 45  0  0  0  0  0  0  0  0999 V2000
  168.3506  156.5919  129.5695 C   0  0  0  0  0  0  0  0  0  0  0  0
  167.3173  155.8978  128.8618 N   0  0  0  0  0  0  0  0  0  0  0  0
  167.7875  155.5363  127.5664 C   0  0  0  0  0  0  0  0  0  0  0  0
  166.7884  155.1218  126.5602 C   0  0  0  0  0  0  0  0  0  0  0  0
  165.3692  155.4079  126.8090 C   0  0  0  0  0  0  0  0  0  0  0  0
  164.7584  156.5046  125.9059 C   0  0  0  0  0  0  0  0  0  0  0  0
  163.3764  156.2678  126.2901 O   0  0  0  0  0  0  0  0  0  0  0  0
  163.2151  154.8571  126.2099 C   0  0  0  0  0  0  0  0  0  0  0  0
  162.1029  154.0748  125.9024 C   0  0  0  0  0  0  0  0  0  0  0  0
  162.1926  152.6891  125.8717 C   0  0  0  0  0  0  0  0  0  0  0  0
  163.4493  152.1287  126.1615 C   0  0  0  0  0  0  0  0  0  0  0  0
  164.5070  152.9220  126.4612 C   0  0  0  0  0  0  0  0  0  0  0  0
  164.4391  154.2989  126.5004 C   0  0  0  0  0  0  0  0  0  0  0  0
  163.2747  150.6791  125.9500 N   0  0  0  0  0  0  0  0  0  0  0  0
  161.9074  150.4297  126.3934 C   0  0  0  0  0  0  0  0  0  0  0  0
  161.2180  151.5814  125.6094 C   0  0  0  0  0  0  0  0  0  0  0  0
  164.3256  149.9280  125.4493 C   0  0  0  0  0  0  0  0  0  0  0  0
  164.0946  149.2343  124.3625 O   0  0  0  0  0  0  0  0  0  0  0  0
  165.6628  149.7866  125.9791 C   0  0  0  0  0  0  0  0  0  0  0  0
  166.7507  150.3542  125.2603 C   0  0  0  0  0  0  0  0  0  0  0  0
  168.0628  150.1551  125.6557 C   0  0  0  0  0  0  0  0  0  0  0  0
  168.3637  149.4030  126.7604 C   0  0  0  0  0  0  0  0  0  0  0  0
  167.2860  148.8637  127.4532 C   0  0  0  0  0  0  0  0  0  0  0  0
  165.9666  149.0394  127.0872 C   0  0  0  0  0  0  0  0  0  0  0  0
  169.7473  149.0880  127.1744 C   0  0  0  0  0  0  0  0  0  0  0  0
  170.0757  149.4607  128.4916 C   0  0  0  0  0  0  0  0  0  0  0  0
  169.1024  150.0881  129.4192 C   0  0  0  0  0  0  0  0  0  0  0  0
  171.3340  149.2377  128.9902 C   0  0  0  0  0  0  0  0  0  0  0  0
  172.2989  148.6293  128.1719 C   0  0  0  0  0  0  0  0  0  0  0  0
  171.9738  148.2669  126.8865 C   0  0  0  0  0  0  0  0  0  0  0  0
  170.6886  148.4996  126.3906 C   0  0  0  0  0  0  0  0  0  0  0  0
  173.6049  148.4483  128.7951 C   0  0  0  0  0  0  0  0  0  0  0  0
  174.0325  148.6526  130.0491 N   0  0  0  0  0  0  0  0  0  0  0  0
  175.3215  148.3704  130.0999 O   0  0  0  0  0  0  0  0  0  0  0  0
  175.7681  147.9836  128.9307 C   0  0  0  0  0  0  0  0  0  0  0  0
  177.1557  147.5687  128.5369 C   0  0  0  0  0  0  0  0  0  0  0  0
  174.7064  148.0286  128.1133 N   0  0  0  0  0  0  0  0  0  0  0  0
  165.0544  155.9008  128.2185 C   0  0  0  0  0  0  0  0  0  0  0  0
  166.1782  156.7953  128.7098 C   0  0  0  0  0  0  0  0  0  0  0  0
  1  2  1  0
  2  3  1  0
  3  4  1  0
  4  5  1  0
  5  6  1  0
  6  7  1  0
  7  8  1  0
  8  9  2  0
  9 10  1  0
 10 11  2  0
 11 12  1  0
 12 13  2  0
 11 14  1  0
 14 15  1  0
 15 16  1  0
 14 17  1  0
 17 18  2  0
 17 19  1  0
 19 20  2  0
 20 21  1  0
 21 22  2  0
 22 23  1  0
 23 24  2  0
 22 25  1  0
 25 26  2  0
 26 27  1  0
 26 28  1  0
 28 29  2  0
 29 30  1  0
 30 31  2  0
 29 32  1  0
 32 33  2  0
 33 34  1  0
 34 35  1  0
 35 36  1  0
 35 37  2  0
  5 38  1  0
 38 39  1  0
 39  2  1  0
 13  5  1  0
 24 19  1  0
 31 25  1  0
 37 32  1  0
 13  8  1  0
 16 10  1  0
M  END
$$$$
