
     RDKit          3D

 39 45  0  0  0  0  0  0  0  0999 V2000
  149.2234  162.9603  122.1724 C   0  0  0  0  0  0  0  0  0  0  0  0
  148.8419  162.6252  123.5113 N   0  0  0  0  0  0  0  0  0  0  0  0
  149.9811  162.6995  124.3636 C   0  0  0  0  0  0  0  0  0  0  0  0
  149.8873  162.0716  125.6976 C   0  0  0  0  0  0  0  0  0  0  0  0
  148.7886  161.1341  125.9655 C   0  0  0  0  0  0  0  0  0  0  0  0
  149.2141  159.6532  126.0962 C   0  0  0  0  0  0  0  0  0  0  0  0
  147.9380  159.1704  126.5981 O   0  0  0  0  0  0  0  0  0  0  0  0
  147.5823  160.0882  127.6247 C   0  0  0  0  0  0  0  0  0  0  0  0
  146.8529  159.9156  128.8002 C   0  0  0  0  0  0  0  0  0  0  0  0
  146.6434  160.9767  129.6715 C   0  0  0  0  0  0  0  0  0  0  0  0
  147.2017  162.2150  129.3079 C   0  0  0  0  0  0  0  0  0  0  0  0
  147.9008  162.3455  128.1536 C   0  0  0  0  0  0  0  0  0  0  0  0
  148.1178  161.3064  127.2733 C   0  0  0  0  0  0  0  0  0  0  0  0
  146.9187  163.1069  130.4485 N   0  0  0  0  0  0  0  0  0  0  0  0
  145.6094  162.6631  130.9146 C   0  0  0  0  0  0  0  0  0  0  0  0
  145.9101  161.1389  130.9682 C   0  0  0  0  0  0  0  0  0  0  0  0
  147.8352  164.0854  130.7975 C   0  0  0  0  0  0  0  0  0  0  0  0
  148.9697  164.0966  130.1430 O   0  0  0  0  0  0  0  0  0  0  0  0
  147.7188  165.1051  131.8151 C   0  0  0  0  0  0  0  0  0  0  0  0
  147.8365  164.7291  133.1816 C   0  0  0  0  0  0  0  0  0  0  0  0
  147.6214  165.6380  134.2040 C   0  0  0  0  0  0  0  0  0  0  0  0
  147.2884  166.9396  133.9367 C   0  0  0  0  0  0  0  0  0  0  0  0
  147.1858  167.2884  132.5951 C   0  0  0  0  0  0  0  0  0  0  0  0
  147.3909  166.4093  131.5507 C   0  0  0  0  0  0  0  0  0  0  0  0
  146.9636  167.9258  134.9889 C   0  0  0  0  0  0  0  0  0  0  0  0
  145.5930  168.0548  135.2833 C   0  0  0  0  0  0  0  0  0  0  0  0
  144.5451  167.2390  134.6216 C   0  0  0  0  0  0  0  0  0  0  0  0
  145.1604  168.9488  136.2295 C   0  0  0  0  0  0  0  0  0  0  0  0
  146.1014  169.7392  136.9083 C   0  0  0  0  0  0  0  0  0  0  0  0
  147.4386  169.6096  136.6178 C   0  0  0  0  0  0  0  0  0  0  0  0
  147.8662  168.6953  135.6519 C   0  0  0  0  0  0  0  0  0  0  0  0
  145.5354  170.6628  137.8848 C   0  0  0  0  0  0  0  0  0  0  0  0
  144.3894  171.3580  137.8972 N   0  0  0  0  0  0  0  0  0  0  0  0
  144.3558  172.0844  138.9995 O   0  0  0  0  0  0  0  0  0  0  0  0
  145.4321  171.8981  139.7225 C   0  0  0  0  0  0  0  0  0  0  0  0
  145.8068  172.5131  141.0393 C   0  0  0  0  0  0  0  0  0  0  0  0
  146.1712  171.0144  139.0365 N   0  0  0  0  0  0  0  0  0  0  0  0
  147.7072  161.0931  124.8895 C   0  0  0  0  0  0  0  0  0  0  0  0
  148.3424  161.2554  123.5203 C   0  0  0  0  0  0  0  0  0  0  0  0
  1  2  1  0
  2  3  1  0
  3  4  1  0
  4  5  1  0
  5  6  1  0
  6  7  1  0
  7  8  1  0
  8  9  2  0
  9 10  1  0
 10 11  2  0
 11 12  1  0
 12 13  2  0
 11 14  1  0
 14 15  1  0
 15 16  1  0
 14 17  1  0
 17 18  2  0
 17 19  1  0
 19 20  2  0
 20 21  1  0
 21 22  2  0
 22 23  1  0
 23 24  2  0
 22 25  1  0
 25 26  2  0
 26 27  1  0
 26 28  1  0
 28 29  2  0
 29 30  1  0
 30 31  2  0
 29 32  1  0
 32 33  2  0
 33 34  1  0
 34 35  1  0
 35 36  1  0
 35 37  2  0
  5 38  1  0
 38 39  1  0
 39  2  1  0
 13  5  1  0
 24 19  1  0
 31 25  1  0
 37 32  1  0
 13  8  1  0
 16 10  1  0
M  END
$$$$
