
     RDKit          3D

 39 45  0  0  0  0  0  0  0  0999 V2000
  111.9439  166.5300  152.9182 C   0  0  0  0  0  0  0  0  0  0  0  0
  110.9505  165.5818  153.3240 N   0  0  0  0  0  0  0  0  0  0  0  0
  110.3102  166.0415  154.5107 C   0  0  0  0  0  0  0  0  0  0  0  0
  109.5048  165.0715  155.2807 C   0  0  0  0  0  0  0  0  0  0  0  0
  109.6580  163.6382  154.9976 C   0  0  0  0  0  0  0  0  0  0  0  0
  110.3709  162.8286  156.1056 C   0  0  0  0  0  0  0  0  0  0  0  0
  110.0689  161.5171  155.5560 O   0  0  0  0  0  0  0  0  0  0  0  0
  108.6827  161.5667  155.2421 C   0  0  0  0  0  0  0  0  0  0  0  0
  107.7057  160.5722  155.2334 C   0  0  0  0  0  0  0  0  0  0  0  0
  106.3903  160.8681  154.9001 C   0  0  0  0  0  0  0  0  0  0  0  0
  106.1036  162.2067  154.5791 C   0  0  0  0  0  0  0  0  0  0  0  0
  107.0817  163.1455  154.5935 C   0  0  0  0  0  0  0  0  0  0  0  0
  108.3939  162.8727  154.9182 C   0  0  0  0  0  0  0  0  0  0  0  0
  104.6423  162.2431  154.3797 N   0  0  0  0  0  0  0  0  0  0  0  0
  104.3465  160.9507  153.7711 C   0  0  0  0  0  0  0  0  0  0  0  0
  105.1344  160.0606  154.7728 C   0  0  0  0  0  0  0  0  0  0  0  0
  103.9279  163.3712  154.7489 C   0  0  0  0  0  0  0  0  0  0  0  0
  102.9158  163.7082  153.9888 O   0  0  0  0  0  0  0  0  0  0  0  0
  104.1589  164.2558  155.8684 C   0  0  0  0  0  0  0  0  0  0  0  0
  104.7626  165.5214  155.6315 C   0  0  0  0  0  0  0  0  0  0  0  0
  105.1128  166.3633  156.6735 C   0  0  0  0  0  0  0  0  0  0  0  0
  104.8877  166.0087  157.9774 C   0  0  0  0  0  0  0  0  0  0  0  0
  104.2901  164.7714  158.1871 C   0  0  0  0  0  0  0  0  0  0  0  0
  103.9298  163.9061  157.1737 C   0  0  0  0  0  0  0  0  0  0  0  0
  105.3208  166.8304  159.1274 C   0  0  0  0  0  0  0  0  0  0  0  0
  106.5527  166.4570  159.6973 C   0  0  0  0  0  0  0  0  0  0  0  0
  107.3838  165.3478  159.1679 C   0  0  0  0  0  0  0  0  0  0  0  0
  107.0567  167.1307  160.7808 C   0  0  0  0  0  0  0  0  0  0  0  0
  106.3304  168.2041  161.3204 C   0  0  0  0  0  0  0  0  0  0  0  0
  105.1282  168.5653  160.7606 C   0  0  0  0  0  0  0  0  0  0  0  0
  104.6259  167.8710  159.6572 C   0  0  0  0  0  0  0  0  0  0  0  0
  106.9495  168.8436  162.4757 C   0  0  0  0  0  0  0  0  0  0  0  0
  108.1390  168.6622  163.0665 N   0  0  0  0  0  0  0  0  0  0  0  0
  108.2130  169.4697  164.1088 O   0  0  0  0  0  0  0  0  0  0  0  0
  107.1215  170.1833  164.2334 C   0  0  0  0  0  0  0  0  0  0  0  0
  106.7792  171.2182  165.2652 C   0  0  0  0  0  0  0  0  0  0  0  0
  106.3304  169.8005  163.2209 N   0  0  0  0  0  0  0  0  0  0  0  0
  110.4756  163.3173  153.7496 C   0  0  0  0  0  0  0  0  0  0  0  0
  111.6118  164.3148  153.6129 C   0  0  0  0  0  0  0  0  0  0  0  0
  1  2  1  0
  2  3  1  0
  3  4  1  0
  4  5  1  0
  5  6  1  0
  6  7  1  0
  7  8  1  0
  8  9  2  0
  9 10  1  0
 10 11  2  0
 11 12  1  0
 12 13  2  0
 11 14  1  0
 14 15  1  0
 15 16  1  0
 14 17  1  0
 17 18  2  0
 17 19  1  0
 19 20  2  0
 20 21  1  0
 21 22  2  0
 22 23  1  0
 23 24  2  0
 22 25  1  0
 25 26  2  0
 26 27  1  0
 26 28  1  0
 28 29  2  0
 29 30  1  0
 30 31  2  0
 29 32  1  0
 32 33  2  0
 33 34  1  0
 34 35  1  0
 35 36  1  0
 35 37  2  0
  5 38  1  0
 38 39  1  0
 39  2  1  0
 13  5  1  0
 24 19  1  0
 31 25  1  0
 37 32  1  0
 13  8  1  0
 16 10  1  0
M  END
$$$$
