
     RDKit          3D

 39 45  0  0  0  0  0  0  0  0999 V2000
  200.5906  126.1229  135.8071 C   0  0  0  0  0  0  0  0  0  0  0  0
  200.8467  127.5190  135.6179 N   0  0  0  0  0  0  0  0  0  0  0  0
  201.2024  128.1109  136.8640 C   0  0  0  0  0  0  0  0  0  0  0  0
  201.1747  129.5848  136.9610 C   0  0  0  0  0  0  0  0  0  0  0  0
  200.4831  130.3522  135.9167 C   0  0  0  0  0  0  0  0  0  0  0  0
  199.1628  131.0200  136.3664 C   0  0  0  0  0  0  0  0  0  0  0  0
  198.9901  131.8362  135.1759 O   0  0  0  0  0  0  0  0  0  0  0  0
  200.2619  132.4351  134.9601 C   0  0  0  0  0  0  0  0  0  0  0  0
  200.6176  133.6623  134.4024 C   0  0  0  0  0  0  0  0  0  0  0  0
  201.9499  134.0433  134.3088 C   0  0  0  0  0  0  0  0  0  0  0  0
  202.9046  133.1367  134.8025 C   0  0  0  0  0  0  0  0  0  0  0  0
  202.5206  131.9498  135.3334 C   0  0  0  0  0  0  0  0  0  0  0  0
  201.2043  131.5506  135.4330 C   0  0  0  0  0  0  0  0  0  0  0  0
  204.1953  133.8397  134.6747 N   0  0  0  0  0  0  0  0  0  0  0  0
  204.0453  134.6120  133.4460 C   0  0  0  0  0  0  0  0  0  0  0  0
  202.6606  135.2439  133.7618 C   0  0  0  0  0  0  0  0  0  0  0  0
  205.1836  133.6366  135.6240 C   0  0  0  0  0  0  0  0  0  0  0  0
  204.8351  133.0066  136.7183 O   0  0  0  0  0  0  0  0  0  0  0  0
  206.5690  134.0461  135.5821 C   0  0  0  0  0  0  0  0  0  0  0  0
  207.0615  134.9103  136.5985 C   0  0  0  0  0  0  0  0  0  0  0  0
  208.3450  135.4277  136.5503 C   0  0  0  0  0  0  0  0  0  0  0  0
  209.1935  135.1233  135.5188 C   0  0  0  0  0  0  0  0  0  0  0  0
  208.6956  134.2712  134.5399 C   0  0  0  0  0  0  0  0  0  0  0  0
  207.4220  133.7388  134.5543 C   0  0  0  0  0  0  0  0  0  0  0  0
  210.5397  135.7164  135.3744 C   0  0  0  0  0  0  0  0  0  0  0  0
  210.5733  136.9737  134.7420 C   0  0  0  0  0  0  0  0  0  0  0  0
  209.3511  137.6801  134.2849 C   0  0  0  0  0  0  0  0  0  0  0  0
  211.7641  137.6218  134.5331 C   0  0  0  0  0  0  0  0  0  0  0  0
  212.9580  137.0184  134.9589 C   0  0  0  0  0  0  0  0  0  0  0  0
  212.9205  135.7909  135.5762 C   0  0  0  0  0  0  0  0  0  0  0  0
  211.7011  135.1413  135.7829 C   0  0  0  0  0  0  0  0  0  0  0  0
  214.1661  137.7859  134.6791 C   0  0  0  0  0  0  0  0  0  0  0  0
  214.3980  139.1057  134.6436 N   0  0  0  0  0  0  0  0  0  0  0  0
  215.6599  139.2971  134.3050 O   0  0  0  0  0  0  0  0  0  0  0  0
  216.2779  138.1575  134.1168 C   0  0  0  0  0  0  0  0  0  0  0  0
  217.7056  137.9073  133.7272 C   0  0  0  0  0  0  0  0  0  0  0  0
  215.3558  137.2121  134.3481 N   0  0  0  0  0  0  0  0  0  0  0  0
  200.0642  129.5371  134.6964 C   0  0  0  0  0  0  0  0  0  0  0  0
  199.6253  128.1514  135.1339 C   0  0  0  0  0  0  0  0  0  0  0  0
  1  2  1  0
  2  3  1  0
  3  4  1  0
  4  5  1  0
  5  6  1  0
  6  7  1  0
  7  8  1  0
  8  9  2  0
  9 10  1  0
 10 11  2  0
 11 12  1  0
 12 13  2  0
 11 14  1  0
 14 15  1  0
 15 16  1  0
 14 17  1  0
 17 18  2  0
 17 19  1  0
 19 20  2  0
 20 21  1  0
 21 22  2  0
 22 23  1  0
 23 24  2  0
 22 25  1  0
 25 26  2  0
 26 27  1  0
 26 28  1  0
 28 29  2  0
 29 30  1  0
 30 31  2  0
 29 32  1  0
 32 33  2  0
 33 34  1  0
 34 35  1  0
 35 36  1  0
 35 37  2  0
  5 38  1  0
 38 39  1  0
 39  2  1  0
 13  5  1  0
 24 19  1  0
 31 25  1  0
 37 32  1  0
 13  8  1  0
 16 10  1  0
M  END
$$$$
