
     RDKit          3D

 39 45  0  0  0  0  0  0  0  0999 V2000
  143.1297  178.2030  147.1853 C   0  0  0  0  0  0  0  0  0  0  0  0
  144.0896  177.8272  148.1791 N   0  0  0  0  0  0  0  0  0  0  0  0
  143.5063  177.9462  149.4735 C   0  0  0  0  0  0  0  0  0  0  0  0
  144.4106  177.9379  150.6416 C   0  0  0  0  0  0  0  0  0  0  0  0
  145.8496  178.1404  150.4270 C   0  0  0  0  0  0  0  0  0  0  0  0
  146.3969  179.4986  150.9243 C   0  0  0  0  0  0  0  0  0  0  0  0
  147.8030  179.1640  150.7683 O   0  0  0  0  0  0  0  0  0  0  0  0
  147.9373  177.8790  151.3627 C   0  0  0  0  0  0  0  0  0  0  0  0
  149.0085  177.2786  152.0228 C   0  0  0  0  0  0  0  0  0  0  0  0
  148.8973  175.9948  152.5411 C   0  0  0  0  0  0  0  0  0  0  0  0
  147.6620  175.3459  152.3671 C   0  0  0  0  0  0  0  0  0  0  0  0
  146.6446  175.9603  151.7149 C   0  0  0  0  0  0  0  0  0  0  0  0
  146.7347  177.2323  151.1901 C   0  0  0  0  0  0  0  0  0  0  0  0
  147.7979  174.0720  153.0987 N   0  0  0  0  0  0  0  0  0  0  0  0
  149.1942  173.7040  152.8910 C   0  0  0  0  0  0  0  0  0  0  0  0
  149.8307  175.0722  153.2644 C   0  0  0  0  0  0  0  0  0  0  0  0
  146.6980  173.5322  153.7453 C   0  0  0  0  0  0  0  0  0  0  0  0
  145.6726  174.3248  153.9347 O   0  0  0  0  0  0  0  0  0  0  0  0
  146.5275  172.1946  154.2658 C   0  0  0  0  0  0  0  0  0  0  0  0
  145.8625  172.0211  155.5109 C   0  0  0  0  0  0  0  0  0  0  0  0
  145.7692  170.7787  156.1152 C   0  0  0  0  0  0  0  0  0  0  0  0
  146.3138  169.6647  155.5329 C   0  0  0  0  0  0  0  0  0  0  0  0
  146.9525  169.8545  154.3130 C   0  0  0  0  0  0  0  0  0  0  0  0
  147.0664  171.0775  153.6829 C   0  0  0  0  0  0  0  0  0  0  0  0
  146.3182  168.3337  156.1761 C   0  0  0  0  0  0  0  0  0  0  0  0
  145.7199  167.3053  155.4238 C   0  0  0  0  0  0  0  0  0  0  0  0
  145.1578  167.5198  154.0674 C   0  0  0  0  0  0  0  0  0  0  0  0
  145.6457  166.0277  155.9176 C   0  0  0  0  0  0  0  0  0  0  0  0
  146.1760  165.7506  157.1876 C   0  0  0  0  0  0  0  0  0  0  0  0
  146.7595  166.7578  157.9185 C   0  0  0  0  0  0  0  0  0  0  0  0
  146.8287  168.0549  157.4042 C   0  0  0  0  0  0  0  0  0  0  0  0
  146.0356  164.3653  157.6214 C   0  0  0  0  0  0  0  0  0  0  0  0
  146.9404  163.4520  158.0011 N   0  0  0  0  0  0  0  0  0  0  0  0
  146.3065  162.3246  158.2674 O   0  0  0  0  0  0  0  0  0  0  0  0
  145.0158  162.4520  158.0830 C   0  0  0  0  0  0  0  0  0  0  0  0
  143.9278  161.4346  158.2668 C   0  0  0  0  0  0  0  0  0  0  0  0
  144.8386  163.7189  157.6816 N   0  0  0  0  0  0  0  0  0  0  0  0
  146.2896  178.1003  148.9663 C   0  0  0  0  0  0  0  0  0  0  0  0
  145.2240  178.7392  148.0941 C   0  0  0  0  0  0  0  0  0  0  0  0
  1  2  1  0
  2  3  1  0
  3  4  1  0
  4  5  1  0
  5  6  1  0
  6  7  1  0
  7  8  1  0
  8  9  2  0
  9 10  1  0
 10 11  2  0
 11 12  1  0
 12 13  2  0
 11 14  1  0
 14 15  1  0
 15 16  1  0
 14 17  1  0
 17 18  2  0
 17 19  1  0
 19 20  2  0
 20 21  1  0
 21 22  2  0
 22 23  1  0
 23 24  2  0
 22 25  1  0
 25 26  2  0
 26 27  1  0
 26 28  1  0
 28 29  2  0
 29 30  1  0
 30 31  2  0
 29 32  1  0
 32 33  2  0
 33 34  1  0
 34 35  1  0
 35 36  1  0
 35 37  2  0
  5 38  1  0
 38 39  1  0
 39  2  1  0
 13  5  1  0
 24 19  1  0
 31 25  1  0
 37 32  1  0
 13  8  1  0
 16 10  1  0
M  END
$$$$
