
     RDKit          3D

 39 45  0  0  0  0  0  0  0  0999 V2000
  181.2488  179.7225  144.2083 C   0  0  0  0  0  0  0  0  0  0  0  0
  182.1594  178.8912  143.4801 N   0  0  0  0  0  0  0  0  0  0  0  0
  181.4264  178.0036  142.6407 C   0  0  0  0  0  0  0  0  0  0  0  0
  182.1429  176.8457  142.0678 C   0  0  0  0  0  0  0  0  0  0  0  0
  183.4473  176.4693  142.6290 C   0  0  0  0  0  0  0  0  0  0  0  0
  183.4515  175.1520  143.4390 C   0  0  0  0  0  0  0  0  0  0  0  0
  184.8970  175.0466  143.5533 O   0  0  0  0  0  0  0  0  0  0  0  0
  185.3822  175.2839  142.2377 C   0  0  0  0  0  0  0  0  0  0  0  0
  186.5096  174.8036  141.5728 C   0  0  0  0  0  0  0  0  0  0  0  0
  186.7732  175.1711  140.2596 C   0  0  0  0  0  0  0  0  0  0  0  0
  185.8523  176.0396  139.6475 C   0  0  0  0  0  0  0  0  0  0  0  0
  184.7697  176.4901  140.3280 C   0  0  0  0  0  0  0  0  0  0  0  0
  184.4909  176.1404  141.6326 C   0  0  0  0  0  0  0  0  0  0  0  0
  186.3197  176.1650  138.2538 N   0  0  0  0  0  0  0  0  0  0  0  0
  187.7730  176.1212  138.3738 C   0  0  0  0  0  0  0  0  0  0  0  0
  187.8715  174.8668  139.2866 C   0  0  0  0  0  0  0  0  0  0  0  0
  185.3958  176.3023  137.2306 C   0  0  0  0  0  0  0  0  0  0  0  0
  184.1304  176.2172  137.5580 O   0  0  0  0  0  0  0  0  0  0  0  0
  185.6388  176.5132  135.8216 C   0  0  0  0  0  0  0  0  0  0  0  0
  185.0101  175.6533  134.8793 C   0  0  0  0  0  0  0  0  0  0  0  0
  185.2921  175.7322  133.5259 C   0  0  0  0  0  0  0  0  0  0  0  0
  186.1890  176.6472  133.0411 C   0  0  0  0  0  0  0  0  0  0  0  0
  186.7865  177.4830  133.9773 C   0  0  0  0  0  0  0  0  0  0  0  0
  186.5314  177.4313  135.3330 C   0  0  0  0  0  0  0  0  0  0  0  0
  186.5901  176.7147  131.6199 C   0  0  0  0  0  0  0  0  0  0  0  0
  187.9456  176.4300  131.3682 C   0  0  0  0  0  0  0  0  0  0  0  0
  188.9025  176.0504  132.4368 C   0  0  0  0  0  0  0  0  0  0  0  0
  188.4462  176.4755  130.0919 C   0  0  0  0  0  0  0  0  0  0  0  0
  187.5904  176.8090  129.0303 C   0  0  0  0  0  0  0  0  0  0  0  0
  186.2676  177.0859  129.2806 C   0  0  0  0  0  0  0  0  0  0  0  0
  185.7701  177.0362  130.5851 C   0  0  0  0  0  0  0  0  0  0  0  0
  188.2252  176.8390  127.7176 C   0  0  0  0  0  0  0  0  0  0  0  0
  189.4169  176.3973  127.2912 N   0  0  0  0  0  0  0  0  0  0  0  0
  189.5368  176.6958  126.0105 O   0  0  0  0  0  0  0  0  0  0  0  0
  188.4714  177.3156  125.5668 C   0  0  0  0  0  0  0  0  0  0  0  0
  188.1810  177.8307  124.1873 C   0  0  0  0  0  0  0  0  0  0  0  0
  187.6501  177.4082  126.6224 N   0  0  0  0  0  0  0  0  0  0  0  0
  184.0387  177.4818  143.6057 C   0  0  0  0  0  0  0  0  0  0  0  0
  182.9279  178.1010  144.4345 C   0  0  0  0  0  0  0  0  0  0  0  0
  1  2  1  0
  2  3  1  0
  3  4  1  0
  4  5  1  0
  5  6  1  0
  6  7  1  0
  7  8  1  0
  8  9  2  0
  9 10  1  0
 10 11  2  0
 11 12  1  0
 12 13  2  0
 11 14  1  0
 14 15  1  0
 15 16  1  0
 14 17  1  0
 17 18  2  0
 17 19  1  0
 19 20  2  0
 20 21  1  0
 21 22  2  0
 22 23  1  0
 23 24  2  0
 22 25  1  0
 25 26  2  0
 26 27  1  0
 26 28  1  0
 28 29  2  0
 29 30  1  0
 30 31  2  0
 29 32  1  0
 32 33  2  0
 33 34  1  0
 34 35  1  0
 35 36  1  0
 35 37  2  0
  5 38  1  0
 38 39  1  0
 39  2  1  0
 13  5  1  0
 24 19  1  0
 31 25  1  0
 37 32  1  0
 13  8  1  0
 16 10  1  0
M  END
$$$$
