
     RDKit          3D

 39 45  0  0  0  0  0  0  0  0999 V2000
  148.2818  178.6010  147.5765 C   0  0  0  0  0  0  0  0  0  0  0  0
  147.2026  179.5003  147.2992 N   0  0  0  0  0  0  0  0  0  0  0  0
  145.9881  178.7647  147.1821 C   0  0  0  0  0  0  0  0  0  0  0  0
  144.8271  179.4422  146.5692 C   0  0  0  0  0  0  0  0  0  0  0  0
  145.0451  180.6873  145.8209 C   0  0  0  0  0  0  0  0  0  0  0  0
  144.8659  180.5661  144.2897 C   0  0  0  0  0  0  0  0  0  0  0  0
  144.9019  181.9937  144.0174 O   0  0  0  0  0  0  0  0  0  0  0  0
  144.0194  182.5669  144.9741 C   0  0  0  0  0  0  0  0  0  0  0  0
  143.2089  183.6997  144.9147 C   0  0  0  0  0  0  0  0  0  0  0  0
  142.4072  184.0598  145.9902 C   0  0  0  0  0  0  0  0  0  0  0  0
  142.4568  183.2292  147.1237 C   0  0  0  0  0  0  0  0  0  0  0  0
  143.2615  182.1383  147.1463 C   0  0  0  0  0  0  0  0  0  0  0  0
  144.0674  181.7648  146.0914 C   0  0  0  0  0  0  0  0  0  0  0  0
  141.4436  183.7824  148.0424 N   0  0  0  0  0  0  0  0  0  0  0  0
  141.5223  185.2211  147.8141 C   0  0  0  0  0  0  0  0  0  0  0  0
  141.4634  185.1918  146.2610 C   0  0  0  0  0  0  0  0  0  0  0  0
  140.7177  182.9286  148.8568 C   0  0  0  0  0  0  0  0  0  0  0  0
  140.7325  183.1790  150.1424 O   0  0  0  0  0  0  0  0  0  0  0  0
  139.9450  181.7666  148.4801 C   0  0  0  0  0  0  0  0  0  0  0  0
  138.5349  181.7899  148.6634 C   0  0  0  0  0  0  0  0  0  0  0  0
  137.7554  180.6696  148.4291 C   0  0  0  0  0  0  0  0  0  0  0  0
  138.3151  179.4924  148.0076 C   0  0  0  0  0  0  0  0  0  0  0  0
  139.6934  179.4929  147.8273 C   0  0  0  0  0  0  0  0  0  0  0  0
  140.5014  180.5892  148.0530 C   0  0  0  0  0  0  0  0  0  0  0  0
  137.5415  178.2457  147.8273 C   0  0  0  0  0  0  0  0  0  0  0  0
  136.5046  178.3188  146.8780 C   0  0  0  0  0  0  0  0  0  0  0  0
  136.2237  179.5391  146.0819 C   0  0  0  0  0  0  0  0  0  0  0  0
  135.7029  177.2336  146.6306 C   0  0  0  0  0  0  0  0  0  0  0  0
  135.9264  176.0401  147.3351 C   0  0  0  0  0  0  0  0  0  0  0  0
  136.9401  175.9732  148.2609 C   0  0  0  0  0  0  0  0  0  0  0  0
  137.7496  177.0856  148.5036 C   0  0  0  0  0  0  0  0  0  0  0  0
  135.0124  174.9529  147.0043 C   0  0  0  0  0  0  0  0  0  0  0  0
  135.2102  173.7708  146.4039 N   0  0  0  0  0  0  0  0  0  0  0  0
  134.0466  173.1542  146.3063 O   0  0  0  0  0  0  0  0  0  0  0  0
  133.0828  173.8772  146.8205 C   0  0  0  0  0  0  0  0  0  0  0  0
  131.6180  173.5669  146.9244 C   0  0  0  0  0  0  0  0  0  0  0  0
  133.6752  174.9978  147.2577 N   0  0  0  0  0  0  0  0  0  0  0  0
  146.4436  181.2814  145.9629 C   0  0  0  0  0  0  0  0  0  0  0  0
  147.4691  180.1641  146.0286 C   0  0  0  0  0  0  0  0  0  0  0  0
  1  2  1  0
  2  3  1  0
  3  4  1  0
  4  5  1  0
  5  6  1  0
  6  7  1  0
  7  8  1  0
  8  9  2  0
  9 10  1  0
 10 11  2  0
 11 12  1  0
 12 13  2  0
 11 14  1  0
 14 15  1  0
 15 16  1  0
 14 17  1  0
 17 18  2  0
 17 19  1  0
 19 20  2  0
 20 21  1  0
 21 22  2  0
 22 23  1  0
 23 24  2  0
 22 25  1  0
 25 26  2  0
 26 27  1  0
 26 28  1  0
 28 29  2  0
 29 30  1  0
 30 31  2  0
 29 32  1  0
 32 33  2  0
 33 34  1  0
 34 35  1  0
 35 36  1  0
 35 37  2  0
  5 38  1  0
 38 39  1  0
 39  2  1  0
 13  5  1  0
 24 19  1  0
 31 25  1  0
 37 32  1  0
 13  8  1  0
 16 10  1  0
M  END
$$$$
