
     RDKit          3D

 33 37  0  0  0  0  0  0  0  0999 V2000
  149.2249  168.8818  131.5695 C   0  0  2  0  0  0  0  0  0  0  0  0
  149.8601  168.9675  132.9127 C   0  0  1  0  0  0  0  0  0  0  0  0
  150.8503  167.9090  133.2465 C   0  0  0  0  0  0  0  0  0  0  0  0
  150.6032  170.3144  132.9505 C   0  0  2  0  0  0  0  0  0  0  0  0
  150.9310  170.6971  134.3764 C   0  0  0  0  0  0  0  0  0  0  0  0
  149.7821  171.4026  132.3339 C   0  0  0  0  0  0  0  0  0  0  0  0
  148.3214  171.0646  132.3358 C   0  0  0  0  0  0  0  0  0  0  0  0
  148.0371  169.8012  131.5155 C   0  0  2  0  0  0  0  0  0  0  0  0
  146.8491  169.1542  132.1463 C   0  0  0  0  0  0  0  0  0  0  0  0
  146.4398  167.8596  131.5049 C   0  0  0  0  0  0  0  0  0  0  0  0
  147.5571  166.8628  131.4070 C   0  0  2  0  0  0  0  0  0  0  0  0
  147.7201  166.2383  132.7752 C   0  0  0  0  0  0  0  0  0  0  0  0
  148.8721  167.5346  131.0950 C   0  0  0  0  0  0  0  0  0  0  0  0
  149.7588  166.8879  130.3503 C   0  0  0  0  0  0  0  0  0  0  0  0
  149.5985  165.5293  129.7763 C   0  0  0  0  0  0  0  0  0  0  0  0
  148.4098  164.8711  130.3628 C   0  0  2  0  0  0  0  0  0  0  0  0
  148.1191  163.4907  129.8589 C   0  0  1  0  0  0  0  0  0  0  0  0
  147.9801  163.3960  128.3904 C   0  0  0  0  0  0  0  0  0  0  0  0
  149.3117  162.6312  130.2861 C   0  0  0  0  0  0  0  0  0  0  0  0
  149.1403  161.1991  129.9592 C   0  0  0  0  0  0  0  0  0  0  0  0
  147.7832  160.6187  130.1666 C   0  0  2  0  0  0  0  0  0  0  0  0
  147.3515  159.9170  129.0065 O   0  0  0  0  0  0  0  0  0  0  0  0
  146.7330  161.5222  130.6656 C   0  0  0  0  0  0  0  0  0  0  0  0
  145.4503  161.2361  129.8587 C   0  0  0  0  0  0  0  0  0  0  0  0
  146.3317  161.0785  132.0884 C   0  0  0  0  0  0  0  0  0  0  0  0
  146.9554  162.9690  130.6531 C   0  0  2  0  0  0  0  0  0  0  0  0
  145.7473  163.7961  130.2629 C   0  0  0  0  0  0  0  0  0  0  0  0
  145.9201  165.2435  130.5846 C   0  0  0  0  0  0  0  0  0  0  0  0
  147.2613  165.8246  130.3314 C   0  0  1  0  0  0  0  0  0  0  0  0
  147.1994  166.6078  129.0237 C   0  0  0  0  0  0  0  0  0  0  0  0
  147.8300  170.2408  130.1393 C   0  0  0  0  0  0  0  0  0  0  0  0
  148.7643  169.8934  129.1789 O   0  0  0  0  0  0  0  0  0  0  0  0
  146.8470  170.9219  129.7668 O   0  0  0  0  0  0  0  0  0  0  0  0
  1  2  1  0
  2  3  1  6
  2  4  1  0
  4  5  1  1
  4  6  1  0
  6  7  1  0
  7  8  1  0
  8  9  1  0
  9 10  1  0
 10 11  1  0
 11 12  1  1
 11 13  1  0
 13 14  2  0
 14 15  1  0
 16 15  1  6
 16 17  1  0
 17 18  1  6
 17 19  1  0
 19 20  1  0
 20 21  1  0
 21 22  1  6
 21 23  1  0
 23 24  1  0
 23 25  1  0
 23 26  1  0
 26 27  1  6
 27 28  1  0
 28 29  1  0
 29 30  1  6
  8 31  1  6
 31 32  1  0
 31 33  2  0
  8  1  1  0
 29 11  1  0
  1 13  1  1
 29 16  1  0
 26 17  1  0
M  END
$$$$
