
     RDKit          3D

 33 37  0  0  0  0  0  0  0  0999 V2000
  164.7988  149.5847  127.5380 C   0  0  2  0  0  0  0  0  0  0  0  0
  163.6244  148.9118  126.9192 C   0  0  1  0  0  0  0  0  0  0  0  0
  163.7107  147.4348  126.7669 C   0  0  0  0  0  0  0  0  0  0  0  0
  162.4273  149.2054  127.8406 C   0  0  2  0  0  0  0  0  0  0  0  0
  161.1262  148.9360  127.1184 C   0  0  0  0  0  0  0  0  0  0  0  0
  162.4380  150.6278  128.3044 C   0  0  0  0  0  0  0  0  0  0  0  0
  163.2322  151.5058  127.3845 C   0  0  0  0  0  0  0  0  0  0  0  0
  164.7001  151.0687  127.3209 C   0  0  2  0  0  0  0  0  0  0  0  0
  165.1823  151.4280  125.9548 C   0  0  0  0  0  0  0  0  0  0  0  0
  166.6041  151.0311  125.6794 C   0  0  0  0  0  0  0  0  0  0  0  0
  166.8793  149.5791  125.9393 C   0  0  2  0  0  0  0  0  0  0  0  0
  166.3385  148.8033  124.7586 C   0  0  0  0  0  0  0  0  0  0  0  0
  166.1249  149.0808  127.1477 C   0  0  0  0  0  0  0  0  0  0  0  0
  166.6803  148.1454  127.9064 C   0  0  0  0  0  0  0  0  0  0  0  0
  168.0024  147.5089  127.6878 C   0  0  0  0  0  0  0  0  0  0  0  0
  168.5208  147.8699  126.3495 C   0  0  2  0  0  0  0  0  0  0  0  0
  169.8632  147.3039  126.0005 C   0  0  1  0  0  0  0  0  0  0  0  0
  170.9294  147.6231  126.9732 C   0  0  0  0  0  0  0  0  0  0  0  0
  169.6794  145.7843  125.9689 C   0  0  0  0  0  0  0  0  0  0  0  0
  170.8941  145.0630  125.5315 C   0  0  0  0  0  0  0  0  0  0  0  0
  171.6731  145.6707  124.4155 C   0  0  2  0  0  0  0  0  0  0  0  0
  173.0517  145.7650  124.7548 O   0  0  0  0  0  0  0  0  0  0  0  0
  171.1731  146.9378  123.8565 C   0  0  0  0  0  0  0  0  0  0  0  0
  172.3864  147.8672  123.6508 C   0  0  0  0  0  0  0  0  0  0  0  0
  170.7008  146.6891  122.4083 C   0  0  0  0  0  0  0  0  0  0  0  0
  170.1482  147.6941  124.5781 C   0  0  2  0  0  0  0  0  0  0  0  0
  170.3352  149.1975  124.5608 C   0  0  0  0  0  0  0  0  0  0  0  0
  169.1133  149.9286  125.0090 C   0  0  0  0  0  0  0  0  0  0  0  0
  168.3698  149.3418  126.1507 C   0  0  1  0  0  0  0  0  0  0  0  0
  168.7280  150.1317  127.4058 C   0  0  0  0  0  0  0  0  0  0  0  0
  165.3843  151.7614  128.4081 C   0  0  0  0  0  0  0  0  0  0  0  0
  165.8459  151.0241  129.4847 O   0  0  0  0  0  0  0  0  0  0  0  0
  165.5831  152.9980  128.4293 O   0  0  0  0  0  0  0  0  0  0  0  0
  1  2  1  0
  2  3  1  1
  2  4  1  0
  4  5  1  6
  4  6  1  0
  6  7  1  0
  7  8  1  0
  8  9  1  0
  9 10  1  0
 10 11  1  0
 11 12  1  6
 11 13  1  0
 13 14  2  0
 14 15  1  0
 16 15  1  1
 16 17  1  0
 17 18  1  1
 17 19  1  0
 19 20  1  0
 20 21  1  0
 21 22  1  1
 21 23  1  0
 23 24  1  0
 23 25  1  0
 23 26  1  0
 26 27  1  1
 27 28  1  0
 28 29  1  0
 29 30  1  1
  8 31  1  1
 31 32  1  0
 31 33  2  0
  8  1  1  0
 29 11  1  0
  1 13  1  6
 29 16  1  0
 26 17  1  0
M  END
$$$$
