
     RDKit          3D

 33 37  0  0  0  0  0  0  0  0999 V2000
  147.3238  163.5746  131.2175 C   0  0  2  0  0  0  0  0  0  0  0  0
  146.3123  162.6442  130.6465 C   0  0  1  0  0  0  0  0  0  0  0  0
  146.4393  162.3349  129.1972 C   0  0  0  0  0  0  0  0  0  0  0  0
  146.4700  161.3179  131.4107 C   0  0  2  0  0  0  0  0  0  0  0  0
  145.2485  160.4477  131.2164 C   0  0  0  0  0  0  0  0  0  0  0  0
  146.6659  161.5571  132.8745 C   0  0  0  0  0  0  0  0  0  0  0  0
  146.1402  162.8974  133.2932 C   0  0  0  0  0  0  0  0  0  0  0  0
  146.8728  164.0363  132.5748 C   0  0  2  0  0  0  0  0  0  0  0  0
  145.8861  165.1487  132.4448 C   0  0  0  0  0  0  0  0  0  0  0  0
  146.4084  166.3530  131.7155 C   0  0  0  0  0  0  0  0  0  0  0  0
  146.9785  166.0320  130.3651 C   0  0  2  0  0  0  0  0  0  0  0  0
  145.8121  165.8519  129.4187 C   0  0  0  0  0  0  0  0  0  0  0  0
  147.7159  164.7152  130.3748 C   0  0  0  0  0  0  0  0  0  0  0  0
  148.7768  164.5715  129.5919 C   0  0  0  0  0  0  0  0  0  0  0  0
  149.3336  165.5937  128.6721 C   0  0  0  0  0  0  0  0  0  0  0  0
  148.3884  166.7252  128.5441 C   0  0  2  0  0  0  0  0  0  0  0  0
  148.8330  167.8428  127.6511 C   0  0  1  0  0  0  0  0  0  0  0  0
  150.1464  168.4200  128.0071 C   0  0  0  0  0  0  0  0  0  0  0  0
  148.9367  167.2392  126.2480 C   0  0  0  0  0  0  0  0  0  0  0  0
  149.2652  168.2399  125.2099 C   0  0  0  0  0  0  0  0  0  0  0  0
  148.6032  169.5704  125.3235 C   0  0  2  0  0  0  0  0  0  0  0  0
  149.5600  170.6197  125.2331 O   0  0  0  0  0  0  0  0  0  0  0  0
  147.6927  169.7750  126.4624 C   0  0  0  0  0  0  0  0  0  0  0  0
  147.9787  171.1751  127.0419 C   0  0  0  0  0  0  0  0  0  0  0  0
  146.2538  169.9295  125.9258 C   0  0  0  0  0  0  0  0  0  0  0  0
  147.6964  168.8221  127.5737 C   0  0  2  0  0  0  0  0  0  0  0  0
  147.5547  169.4449  128.9476 C   0  0  0  0  0  0  0  0  0  0  0  0
  147.2306  168.4363  129.9994 C   0  0  0  0  0  0  0  0  0  0  0  0
  147.9290  167.1310  129.9055 C   0  0  1  0  0  0  0  0  0  0  0  0
  149.0671  167.1282  130.9214 C   0  0  0  0  0  0  0  0  0  0  0  0
  148.0417  164.3533  133.3891 C   0  0  0  0  0  0  0  0  0  0  0  0
  147.8585  164.6899  134.7191 O   0  0  0  0  0  0  0  0  0  0  0  0
  149.2166  164.3400  132.9549 O   0  0  0  0  0  0  0  0  0  0  0  0
  1  2  1  0
  2  3  1  6
  2  4  1  0
  4  5  1  1
  4  6  1  0
  6  7  1  0
  7  8  1  0
  8  9  1  0
  9 10  1  0
 10 11  1  0
 11 12  1  6
 11 13  1  0
 13 14  2  0
 14 15  1  0
 16 15  1  1
 16 17  1  0
 17 18  1  1
 17 19  1  0
 19 20  1  0
 20 21  1  0
 21 22  1  1
 21 23  1  0
 23 24  1  0
 23 25  1  0
 23 26  1  0
 26 27  1  1
 27 28  1  0
 28 29  1  0
 29 30  1  1
  8 31  1  1
 31 32  1  0
 31 33  2  0
  8  1  1  0
 29 11  1  0
  1 13  1  6
 29 16  1  0
 26 17  1  0
M  END
$$$$
