
     RDKit          3D

 33 37  0  0  0  0  0  0  0  0999 V2000
  106.8228  162.6513  154.7229 C   0  0  2  0  0  0  0  0  0  0  0  0
  106.8135  161.2731  155.2845 C   0  0  1  0  0  0  0  0  0  0  0  0
  105.8220  161.0019  156.3595 C   0  0  0  0  0  0  0  0  0  0  0  0
  106.4814  160.3343  154.1113 C   0  0  2  0  0  0  0  0  0  0  0  0
  106.8468  158.9079  154.4563 C   0  0  0  0  0  0  0  0  0  0  0  0
  107.2172  160.7361  152.8721 C   0  0  0  0  0  0  0  0  0  0  0  0
  108.4361  161.5496  153.1894 C   0  0  0  0  0  0  0  0  0  0  0  0
  108.0688  162.8533  153.9070 C   0  0  2  0  0  0  0  0  0  0  0  0
  109.2242  163.1799  154.7937 C   0  0  0  0  0  0  0  0  0  0  0  0
  109.0319  164.4146  155.6264 C   0  0  0  0  0  0  0  0  0  0  0  0
  107.7701  164.3963  156.4382 C   0  0  2  0  0  0  0  0  0  0  0  0
  108.0252  163.5149  157.6410 C   0  0  0  0  0  0  0  0  0  0  0  0
  106.6346  163.7518  155.6812 C   0  0  0  0  0  0  0  0  0  0  0  0
  105.4012  164.1977  155.8783 C   0  0  0  0  0  0  0  0  0  0  0  0
  104.9998  165.2921  156.7961 C   0  0  0  0  0  0  0  0  0  0  0  0
  106.1357  165.6582  157.6714 C   0  0  2  0  0  0  0  0  0  0  0  0
  105.8730  166.7670  158.6437 C   0  0  1  0  0  0  0  0  0  0  0  0
  105.3898  168.0185  158.0231 C   0  0  0  0  0  0  0  0  0  0  0  0
  104.7851  166.2457  159.5864 C   0  0  0  0  0  0  0  0  0  0  0  0
  104.4750  167.1831  160.6874 C   0  0  0  0  0  0  0  0  0  0  0  0
  105.6274  167.8903  161.3146 C   0  0  2  0  0  0  0  0  0  0  0  0
  105.3860  169.2910  161.3785 O   0  0  0  0  0  0  0  0  0  0  0  0
  106.9677  167.6035  160.7765 C   0  0  0  0  0  0  0  0  0  0  0  0
  107.7186  168.9452  160.6573 C   0  0  0  0  0  0  0  0  0  0  0  0
  107.7873  166.8632  161.8546 C   0  0  0  0  0  0  0  0  0  0  0  0
  107.1009  166.9018  159.4987 C   0  0  2  0  0  0  0  0  0  0  0  0
  108.2097  167.4148  158.6025 C   0  0  0  0  0  0  0  0  0  0  0  0
  108.5201  166.4745  157.4854 C   0  0  0  0  0  0  0  0  0  0  0  0
  107.3636  165.8102  156.8359 C   0  0  1  0  0  0  0  0  0  0  0  0
  107.0798  166.5309  155.5216 C   0  0  0  0  0  0  0  0  0  0  0  0
  107.8067  163.8392  152.8632 C   0  0  0  0  0  0  0  0  0  0  0  0
  106.6734  164.6280  152.9581 O   0  0  0  0  0  0  0  0  0  0  0  0
  108.5527  164.0193  151.8731 O   0  0  0  0  0  0  0  0  0  0  0  0
  1  2  1  0
  2  3  1  1
  2  4  1  0
  4  5  1  1
  4  6  1  0
  6  7  1  0
  7  8  1  0
  8  9  1  0
  9 10  1  0
 10 11  1  0
 11 12  1  1
 11 13  1  0
 13 14  2  0
 14 15  1  0
 16 15  1  6
 16 17  1  0
 17 18  1  6
 17 19  1  0
 19 20  1  0
 20 21  1  0
 21 22  1  6
 21 23  1  0
 23 24  1  0
 23 25  1  0
 23 26  1  0
 26 27  1  6
 27 28  1  0
 28 29  1  0
 29 30  1  6
  8 31  1  6
 31 32  1  0
 31 33  2  0
  8  1  1  0
 29 11  1  0
  1 13  1  1
 29 16  1  0
 26 17  1  0
M  END
$$$$
