
     RDKit          3D

 33 37  0  0  0  0  0  0  0  0999 V2000
  190.7484  160.0991  129.2964 C   0  0  2  0  0  0  0  0  0  0  0  0
  191.5835  159.3830  128.2941 C   0  0  1  0  0  0  0  0  0  0  0  0
  192.8996  158.8771  128.7677 C   0  0  0  0  0  0  0  0  0  0  0  0
  190.7614  158.1623  127.8445 C   0  0  2  0  0  0  0  0  0  0  0  0
  191.3116  157.6017  126.5522 C   0  0  0  0  0  0  0  0  0  0  0  0
  189.3237  158.5234  127.6422 C   0  0  0  0  0  0  0  0  0  0  0  0
  189.1491  159.9926  127.3992 C   0  0  0  0  0  0  0  0  0  0  0  0
  189.6306  160.8199  128.5965 C   0  0  2  0  0  0  0  0  0  0  0  0
  190.1163  162.1161  128.0380 C   0  0  0  0  0  0  0  0  0  0  0  0
  190.6791  163.0567  129.0644 C   0  0  0  0  0  0  0  0  0  0  0  0
  191.7566  162.4427  129.9091 C   0  0  2  0  0  0  0  0  0  0  0  0
  193.0245  162.4402  129.0840 C   0  0  0  0  0  0  0  0  0  0  0  0
  191.4583  160.9966  130.2212 C   0  0  0  0  0  0  0  0  0  0  0  0
  191.8462  160.5021  131.3892 C   0  0  0  0  0  0  0  0  0  0  0  0
  192.5710  161.2357  132.4557 C   0  0  0  0  0  0  0  0  0  0  0  0
  193.0420  162.5403  131.9396 C   0  0  2  0  0  0  0  0  0  0  0  0
  193.7815  163.3966  132.9214 C   0  0  1  0  0  0  0  0  0  0  0  0
  193.0378  163.6726  134.1687 C   0  0  0  0  0  0  0  0  0  0  0  0
  195.0507  162.6190  133.2796 C   0  0  0  0  0  0  0  0  0  0  0  0
  195.9608  163.3736  134.1680 C   0  0  0  0  0  0  0  0  0  0  0  0
  196.1186  164.8296  133.8909 C   0  0  2  0  0  0  0  0  0  0  0  0
  195.9304  165.5925  135.0771 O   0  0  0  0  0  0  0  0  0  0  0  0
  195.3476  165.3892  132.7682 C   0  0  0  0  0  0  0  0  0  0  0  0
  194.7584  166.7363  133.2334 C   0  0  0  0  0  0  0  0  0  0  0  0
  196.3297  165.8255  131.6604 C   0  0  0  0  0  0  0  0  0  0  0  0
  194.2616  164.6079  132.1738 C   0  0  2  0  0  0  0  0  0  0  0  0
  193.0331  165.4097  131.7951 C   0  0  0  0  0  0  0  0  0  0  0  0
  192.1083  164.6482  130.9044 C   0  0  0  0  0  0  0  0  0  0  0  0
  191.9210  163.2099  131.2156 C   0  0  1  0  0  0  0  0  0  0  0  0
  190.5899  163.0520  131.9441 C   0  0  0  0  0  0  0  0  0  0  0  0
  188.4916  160.9374  129.5014 C   0  0  0  0  0  0  0  0  0  0  0  0
  188.3085  159.9702  130.4746 O   0  0  0  0  0  0  0  0  0  0  0  0
  187.6575  161.8707  129.4529 O   0  0  0  0  0  0  0  0  0  0  0  0
  1  2  1  0
  2  3  1  1
  2  4  1  0
  4  5  1  6
  4  6  1  0
  6  7  1  0
  7  8  1  0
  8  9  1  0
  9 10  1  0
 10 11  1  0
 11 12  1  6
 11 13  1  0
 13 14  2  0
 14 15  1  0
 16 15  1  1
 16 17  1  0
 17 18  1  1
 17 19  1  0
 19 20  1  0
 20 21  1  0
 21 22  1  1
 21 23  1  0
 23 24  1  0
 23 25  1  0
 23 26  1  0
 26 27  1  1
 27 28  1  0
 28 29  1  0
 29 30  1  1
  8 31  1  1
 31 32  1  0
 31 33  2  0
  8  1  1  0
 29 11  1  0
  1 13  1  6
 29 16  1  0
 26 17  1  0
M  END
$$$$
