
     RDKit          3D

 33 37  0  0  0  0  0  0  0  0999 V2000
  173.2365  166.1341  110.0843 C   0  0  2  0  0  0  0  0  0  0  0  0
  174.0496  166.1783  108.8386 C   0  0  1  0  0  0  0  0  0  0  0  0
  174.1388  164.9142  108.0598 C   0  0  0  0  0  0  0  0  0  0  0  0
  173.3849  167.2271  107.9296 C   0  0  2  0  0  0  0  0  0  0  0  0
  174.3357  167.6558  106.8346 C   0  0  0  0  0  0  0  0  0  0  0  0
  172.9698  168.4341  108.7103 C   0  0  0  0  0  0  0  0  0  0  0  0
  173.7453  168.5630  109.9870 C   0  0  0  0  0  0  0  0  0  0  0  0
  173.5122  167.3604  110.9084 C   0  0  2  0  0  0  0  0  0  0  0  0
  174.7700  167.1878  111.6934 C   0  0  0  0  0  0  0  0  0  0  0  0
  174.7548  166.0150  112.6311 C   0  0  0  0  0  0  0  0  0  0  0  0
  174.4040  164.7194  111.9605 C   0  0  2  0  0  0  0  0  0  0  0  0
  175.6433  164.2407  111.2370 C   0  0  0  0  0  0  0  0  0  0  0  0
  173.3492  164.9139  110.8987 C   0  0  0  0  0  0  0  0  0  0  0  0
  172.4704  163.9435  110.6860 C   0  0  0  0  0  0  0  0  0  0  0  0
  172.4116  162.6419  111.3954 C   0  0  0  0  0  0  0  0  0  0  0  0
  173.6352  162.4538  112.2063 C   0  0  2  0  0  0  0  0  0  0  0  0
  173.7024  161.1798  112.9915 C   0  0  1  0  0  0  0  0  0  0  0  0
  172.5526  160.9601  113.8939 C   0  0  0  0  0  0  0  0  0  0  0  0
  173.7240  160.0525  111.9558 C   0  0  0  0  0  0  0  0  0  0  0  0
  173.8978  158.7140  112.5602 C   0  0  0  0  0  0  0  0  0  0  0  0
  174.8605  158.6064  113.6930 C   0  0  2  0  0  0  0  0  0  0  0  0
  174.2652  157.9395  114.7999 O   0  0  0  0  0  0  0  0  0  0  0  0
  175.5425  159.8405  114.1172 C   0  0  0  0  0  0  0  0  0  0  0  0
  175.5382  159.8687  115.6591 C   0  0  0  0  0  0  0  0  0  0  0  0
  177.0466  159.7121  113.7954 C   0  0  0  0  0  0  0  0  0  0  0  0
  175.0543  161.1375  113.6453 C   0  0  2  0  0  0  0  0  0  0  0  0
  175.0797  162.2431  114.6809 C   0  0  0  0  0  0  0  0  0  0  0  0
  174.8967  163.5952  114.0750 C   0  0  0  0  0  0  0  0  0  0  0  0
  173.9027  163.7029  112.9792 C   0  0  1  0  0  0  0  0  0  0  0  0
  172.6261  164.3077  113.5551 C   0  0  0  0  0  0  0  0  0  0  0  0
  172.3346  167.6770  111.7102 C   0  0  0  0  0  0  0  0  0  0  0  0
  171.1173  167.1193  111.3594 O   0  0  0  0  0  0  0  0  0  0  0  0
  172.3556  168.4319  112.7096 O   0  0  0  0  0  0  0  0  0  0  0  0
  1  2  1  0
  2  3  1  6
  2  4  1  0
  4  5  1  6
  4  6  1  0
  6  7  1  0
  7  8  1  0
  8  9  1  0
  9 10  1  0
 10 11  1  0
 11 12  1  6
 11 13  1  0
 13 14  2  0
 14 15  1  0
 16 15  1  1
 16 17  1  0
 17 18  1  1
 17 19  1  0
 19 20  1  0
 20 21  1  0
 21 22  1  1
 21 23  1  0
 23 24  1  0
 23 25  1  0
 23 26  1  0
 26 27  1  1
 27 28  1  0
 28 29  1  0
 29 30  1  1
  8 31  1  1
 31 32  1  0
 31 33  2  0
  8  1  1  0
 29 11  1  0
  1 13  1  1
 29 16  1  0
 26 17  1  0
M  END
$$$$
