
     RDKit          3D

 33 37  0  0  0  0  0  0  0  0999 V2000
  146.0490  168.5130  134.7105 C   0  0  2  0  0  0  0  0  0  0  0  0
  145.1417  169.6916  134.6612 C   0  0  1  0  0  0  0  0  0  0  0  0
  144.1901  169.7484  133.5195 C   0  0  0  0  0  0  0  0  0  0  0  0
  144.3033  169.6416  135.9506 C   0  0  2  0  0  0  0  0  0  0  0  0
  143.6548  170.9827  136.2115 C   0  0  0  0  0  0  0  0  0  0  0  0
  145.1471  169.2744  137.1303 C   0  0  0  0  0  0  0  0  0  0  0  0
  146.5970  169.5709  136.8896 C   0  0  0  0  0  0  0  0  0  0  0  0
  147.1455  168.7640  135.7074 C   0  0  2  0  0  0  0  0  0  0  0  0
  148.2221  169.5989  135.0977 C   0  0  0  0  0  0  0  0  0  0  0  0
  148.8575  168.9915  133.8802 C   0  0  0  0  0  0  0  0  0  0  0  0
  147.8676  168.6034  132.8213 C   0  0  2  0  0  0  0  0  0  0  0  0
  147.4712  169.8695  132.0944 C   0  0  0  0  0  0  0  0  0  0  0  0
  146.5986  168.0535  133.4253 C   0  0  0  0  0  0  0  0  0  0  0  0
  145.9415  167.1026  132.7748 C   0  0  0  0  0  0  0  0  0  0  0  0
  146.3251  166.5042  131.4726 C   0  0  0  0  0  0  0  0  0  0  0  0
  147.4125  167.2955  130.8549 C   0  0  2  0  0  0  0  0  0  0  0  0
  147.9103  166.7923  129.5347 C   0  0  1  0  0  0  0  0  0  0  0  0
  148.3611  165.3847  129.5511 C   0  0  0  0  0  0  0  0  0  0  0  0
  146.7261  166.9075  128.5713 C   0  0  0  0  0  0  0  0  0  0  0  0
  147.0746  166.5486  127.1796 C   0  0  0  0  0  0  0  0  0  0  0  0
  148.3995  167.0103  126.6766 C   0  0  2  0  0  0  0  0  0  0  0  0
  149.1187  165.9337  126.0866 O   0  0  0  0  0  0  0  0  0  0  0  0
  149.2472  167.7703  127.6104 C   0  0  0  0  0  0  0  0  0  0  0  0
  150.6889  167.2427  127.4655 C   0  0  0  0  0  0  0  0  0  0  0  0
  149.3750  169.2202  127.0967 C   0  0  0  0  0  0  0  0  0  0  0  0
  148.9190  167.7881  129.0369 C   0  0  2  0  0  0  0  0  0  0  0  0
  150.1130  167.7106  129.9664 C   0  0  0  0  0  0  0  0  0  0  0  0
  149.7631  168.0649  131.3737 C   0  0  0  0  0  0  0  0  0  0  0  0
  148.4632  167.5619  131.8816 C   0  0  1  0  0  0  0  0  0  0  0  0
  148.7360  166.3418  132.7557 C   0  0  0  0  0  0  0  0  0  0  0  0
  147.6012  167.4896  136.2537 C   0  0  0  0  0  0  0  0  0  0  0  0
  148.6464  167.4868  137.1610 O   0  0  0  0  0  0  0  0  0  0  0  0
  147.0995  166.3829  135.9494 O   0  0  0  0  0  0  0  0  0  0  0  0
  1  2  1  0
  2  3  1  6
  2  4  1  0
  4  5  1  1
  4  6  1  0
  6  7  1  0
  7  8  1  0
  8  9  1  0
  9 10  1  0
 10 11  1  0
 11 12  1  6
 11 13  1  0
 13 14  2  0
 14 15  1  0
 16 15  1  1
 16 17  1  0
 17 18  1  1
 17 19  1  0
 19 20  1  0
 20 21  1  0
 21 22  1  1
 21 23  1  0
 23 24  1  0
 23 25  1  0
 23 26  1  0
 26 27  1  1
 27 28  1  0
 28 29  1  0
 29 30  1  1
  8 31  1  1
 31 32  1  0
 31 33  2  0
  8  1  1  0
 29 11  1  0
  1 13  1  6
 29 16  1  0
 26 17  1  0
M  END
$$$$
