
     RDKit          3D

 33 37  0  0  0  0  0  0  0  0999 V2000
  147.5575  167.6950  133.4288 C   0  0  2  0  0  0  0  0  0  0  0  0
  146.0958  167.5801  133.6841 C   0  0  1  0  0  0  0  0  0  0  0  0
  145.4240  166.3633  133.1548 C   0  0  0  0  0  0  0  0  0  0  0  0
  145.9277  167.5641  135.2137 C   0  0  2  0  0  0  0  0  0  0  0  0
  144.4947  167.8662  135.5908 C   0  0  0  0  0  0  0  0  0  0  0  0
  146.8223  168.5700  135.8666 C   0  0  0  0  0  0  0  0  0  0  0  0
  147.2234  169.6568  134.9148 C   0  0  0  0  0  0  0  0  0  0  0  0
  148.0108  169.0972  133.7245 C   0  0  2  0  0  0  0  0  0  0  0  0
  147.7130  169.9948  132.5698 C   0  0  0  0  0  0  0  0  0  0  0  0
  148.3640  169.5785  131.2822 C   0  0  0  0  0  0  0  0  0  0  0  0
  148.0713  168.1579  130.8978 C   0  0  2  0  0  0  0  0  0  0  0  0
  146.6786  168.1324  130.3075 C   0  0  0  0  0  0  0  0  0  0  0  0
  148.0294  167.2551  132.1065 C   0  0  0  0  0  0  0  0  0  0  0  0
  148.4431  166.0012  131.9817 C   0  0  0  0  0  0  0  0  0  0  0  0
  148.9534  165.3646  130.7427 C   0  0  0  0  0  0  0  0  0  0  0  0
  148.6974  166.2452  129.5811 C   0  0  2  0  0  0  0  0  0  0  0  0
  149.1773  165.7294  128.2591 C   0  0  1  0  0  0  0  0  0  0  0  0
  150.6141  165.3840  128.2262 C   0  0  0  0  0  0  0  0  0  0  0  0
  148.3698  164.4568  127.9901 C   0  0  0  0  0  0  0  0  0  0  0  0
  148.6429  163.8676  126.6615 C   0  0  0  0  0  0  0  0  0  0  0  0
  148.8026  164.8170  125.5236 C   0  0  2  0  0  0  0  0  0  0  0  0
  149.9922  164.5363  124.7951 O   0  0  0  0  0  0  0  0  0  0  0  0
  148.6870  166.2539  125.8236 C   0  0  0  0  0  0  0  0  0  0  0  0
  149.8119  166.9813  125.0598 C   0  0  0  0  0  0  0  0  0  0  0  0
  147.4171  166.8030  125.1393 C   0  0  0  0  0  0  0  0  0  0  0  0
  148.7242  166.7093  127.2144 C   0  0  2  0  0  0  0  0  0  0  0  0
  149.4987  167.9910  127.4447 C   0  0  0  0  0  0  0  0  0  0  0  0
  149.2312  168.5845  128.7881 C   0  0  0  0  0  0  0  0  0  0  0  0
  149.1199  167.6357  129.9230 C   0  0  1  0  0  0  0  0  0  0  0  0
  150.4352  167.6640  130.6952 C   0  0  0  0  0  0  0  0  0  0  0  0
  149.4124  169.0750  134.1309 C   0  0  0  0  0  0  0  0  0  0  0  0
  150.0440  167.8533  134.2864 O   0  0  0  0  0  0  0  0  0  0  0  0
  150.0896  170.1057  134.3508 O   0  0  0  0  0  0  0  0  0  0  0  0
  1  2  1  0
  2  3  1  6
  2  4  1  0
  4  5  1  6
  4  6  1  0
  6  7  1  0
  7  8  1  0
  8  9  1  0
  9 10  1  0
 10 11  1  0
 11 12  1  6
 11 13  1  0
 13 14  2  0
 14 15  1  0
 16 15  1  1
 16 17  1  0
 17 18  1  1
 17 19  1  0
 19 20  1  0
 20 21  1  0
 21 22  1  1
 21 23  1  0
 23 24  1  0
 23 25  1  0
 23 26  1  0
 26 27  1  6
 27 28  1  0
 28 29  1  0
 29 30  1  1
  8 31  1  1
 31 32  1  0
 31 33  2  0
  8  1  1  0
 29 11  1  0
  1 13  1  6
 29 16  1  0
 26 17  1  0
M  END
$$$$
