
     RDKit          3D

 33 37  0  0  0  0  0  0  0  0999 V2000
  188.2543  162.3073  138.6600 C   0  0  2  0  0  0  0  0  0  0  0  0
  189.3630  163.2666  138.9157 C   0  0  1  0  0  0  0  0  0  0  0  0
  189.8295  163.3808  140.3234 C   0  0  0  0  0  0  0  0  0  0  0  0
  190.5570  162.7749  138.0788 C   0  0  2  0  0  0  0  0  0  0  0  0
  191.5858  163.8734  137.9298 C   0  0  0  0  0  0  0  0  0  0  0  0
  190.1187  162.3345  136.7178 C   0  0  0  0  0  0  0  0  0  0  0  0
  188.8107  162.9552  136.3279 C   0  0  0  0  0  0  0  0  0  0  0  0
  187.6881  162.5472  137.2886 C   0  0  2  0  0  0  0  0  0  0  0  0
  186.7274  163.6893  137.3147 C   0  0  0  0  0  0  0  0  0  0  0  0
  185.5671  163.4969  138.2483 C   0  0  0  0  0  0  0  0  0  0  0  0
  185.9795  163.1601  139.6512 C   0  0  2  0  0  0  0  0  0  0  0  0
  186.4137  164.4502  140.3113 C   0  0  0  0  0  0  0  0  0  0  0  0
  187.1863  162.2540  139.6706 C   0  0  0  0  0  0  0  0  0  0  0  0
  187.2952  161.3562  140.6407 C   0  0  0  0  0  0  0  0  0  0  0  0
  186.3334  161.1412  141.7496 C   0  0  0  0  0  0  0  0  0  0  0  0
  185.3487  162.2454  141.7842 C   0  0  2  0  0  0  0  0  0  0  0  0
  184.3032  162.1477  142.8526 C   0  0  1  0  0  0  0  0  0  0  0  0
  183.5322  160.8867  142.8356 C   0  0  0  0  0  0  0  0  0  0  0  0
  185.0568  162.2334  144.1824 C   0  0  0  0  0  0  0  0  0  0  0  0
  184.1582  162.2598  145.3567 C   0  0  0  0  0  0  0  0  0  0  0  0
  182.9137  163.0708  145.2343 C   0  0  2  0  0  0  0  0  0  0  0  0
  181.7754  162.3103  145.6221 O   0  0  0  0  0  0  0  0  0  0  0  0
  182.6831  163.7623  143.9550 C   0  0  0  0  0  0  0  0  0  0  0  0
  181.1983  163.5726  143.5839 C   0  0  0  0  0  0  0  0  0  0  0  0
  182.7705  165.2851  144.1911 C   0  0  0  0  0  0  0  0  0  0  0  0
  183.4855  163.4060  142.7835 C   0  0  2  0  0  0  0  0  0  0  0  0
  182.7211  163.3656  141.4759 C   0  0  0  0  0  0  0  0  0  0  0  0
  183.6252  163.3312  140.2885 C   0  0  0  0  0  0  0  0  0  0  0  0
  184.8381  162.4846  140.4018 C   0  0  1  0  0  0  0  0  0  0  0  0
  184.5789  161.1823  139.6507 C   0  0  0  0  0  0  0  0  0  0  0  0
  187.1348  161.3000  136.7706 C   0  0  0  0  0  0  0  0  0  0  0  0
  186.4902  161.3124  135.5458 O   0  0  0  0  0  0  0  0  0  0  0  0
  187.2072  160.2037  137.3723 O   0  0  0  0  0  0  0  0  0  0  0  0
  1  2  1  0
  2  3  1  1
  2  4  1  0
  4  5  1  6
  4  6  1  0
  6  7  1  0
  7  8  1  0
  8  9  1  0
  9 10  1  0
 10 11  1  0
 11 12  1  1
 11 13  1  0
 13 14  2  0
 14 15  1  0
 16 15  1  6
 16 17  1  0
 17 18  1  1
 17 19  1  0
 19 20  1  0
 20 21  1  0
 21 22  1  6
 21 23  1  0
 23 24  1  0
 23 25  1  0
 23 26  1  0
 26 27  1  6
 27 28  1  0
 28 29  1  0
 29 30  1  6
  8 31  1  6
 31 32  1  0
 31 33  2  0
  8  1  1  0
 29 11  1  0
  1 13  1  1
 29 16  1  0
 26 17  1  0
M  END
$$$$
