
     RDKit          3D

 33 37  0  0  0  0  0  0  0  0999 V2000
  147.5968  170.8125  132.6005 C   0  0  2  0  0  0  0  0  0  0  0  0
  148.9384  171.3228  132.9939 C   0  0  1  0  0  0  0  0  0  0  0  0
  149.9330  171.4850  131.8998 C   0  0  0  0  0  0  0  0  0  0  0  0
  148.7050  172.7147  133.6071 C   0  0  2  0  0  0  0  0  0  0  0  0
  149.9124  173.1486  134.4076 C   0  0  0  0  0  0  0  0  0  0  0  0
  147.5052  172.7175  134.5010 C   0  0  0  0  0  0  0  0  0  0  0  0
  147.1744  171.3394  134.9905 C   0  0  0  0  0  0  0  0  0  0  0  0
  146.8366  170.3979  133.8290 C   0  0  2  0  0  0  0  0  0  0  0  0
  147.2558  169.0331  134.2644 C   0  0  0  0  0  0  0  0  0  0  0  0
  147.0467  167.9652  133.2296 C   0  0  0  0  0  0  0  0  0  0  0  0
  147.6808  168.2833  131.9074 C   0  0  2  0  0  0  0  0  0  0  0  0
  149.1596  167.9931  132.0395 C   0  0  0  0  0  0  0  0  0  0  0  0
  147.5710  169.7526  131.5804 C   0  0  0  0  0  0  0  0  0  0  0  0
  147.4374  170.1163  130.3120 C   0  0  0  0  0  0  0  0  0  0  0  0
  147.3891  169.2090  129.1392 C   0  0  0  0  0  0  0  0  0  0  0  0
  147.7735  167.8389  129.5456 C   0  0  2  0  0  0  0  0  0  0  0  0
  147.7536  166.8106  128.4564 C   0  0  1  0  0  0  0  0  0  0  0  0
  146.4612  166.7004  127.7475 C   0  0  0  0  0  0  0  0  0  0  0  0
  148.8195  167.2499  127.4490 C   0  0  0  0  0  0  0  0  0  0  0  0
  149.0108  166.2805  126.3486 C   0  0  0  0  0  0  0  0  0  0  0  0
  148.9821  164.8352  126.7117 C   0  0  2  0  0  0  0  0  0  0  0  0
  148.0928  164.1190  125.8628 O   0  0  0  0  0  0  0  0  0  0  0  0
  148.7544  164.5005  128.1274 C   0  0  0  0  0  0  0  0  0  0  0  0
  147.7532  163.3285  128.1737 C   0  0  0  0  0  0  0  0  0  0  0  0
  150.0371  163.8592  128.6982 C   0  0  0  0  0  0  0  0  0  0  0  0
  148.2767  165.5330  129.0487 C   0  0  2  0  0  0  0  0  0  0  0  0
  147.2505  165.0608  130.0583 C   0  0  0  0  0  0  0  0  0  0  0  0
  147.0492  166.0405  131.1666 C   0  0  0  0  0  0  0  0  0  0  0  0
  147.0327  167.4752  130.7897 C   0  0  1  0  0  0  0  0  0  0  0  0
  145.5796  167.9381  130.7503 C   0  0  0  0  0  0  0  0  0  0  0  0
  145.4056  170.5439  133.5824 C   0  0  0  0  0  0  0  0  0  0  0  0
  144.5140  170.1386  134.5604 O   0  0  0  0  0  0  0  0  0  0  0  0
  144.9262  171.0193  132.5273 O   0  0  0  0  0  0  0  0  0  0  0  0
  1  2  1  0
  2  3  1  6
  2  4  1  0
  4  5  1  1
  4  6  1  0
  6  7  1  0
  7  8  1  0
  8  9  1  0
  9 10  1  0
 10 11  1  0
 11 12  1  1
 11 13  1  0
 13 14  2  0
 14 15  1  0
 16 15  1  6
 16 17  1  0
 17 18  1  6
 17 19  1  0
 19 20  1  0
 20 21  1  0
 21 22  1  6
 21 23  1  0
 23 24  1  0
 23 25  1  0
 23 26  1  0
 26 27  1  6
 27 28  1  0
 28 29  1  0
 29 30  1  6
  8 31  1  6
 31 32  1  0
 31 33  2  0
  8  1  1  0
 29 11  1  0
  1 13  1  6
 29 16  1  0
 26 17  1  0
M  END
$$$$
