
     RDKit          3D

 33 37  0  0  0  0  0  0  0  0999 V2000
  172.9256  162.2437  112.1097 C   0  0  2  0  0  0  0  0  0  0  0  0
  171.4659  162.2849  111.8227 C   0  0  1  0  0  0  0  0  0  0  0  0
  171.0744  162.5712  110.4166 C   0  0  0  0  0  0  0  0  0  0  0  0
  170.9206  160.8889  112.1720 C   0  0  2  0  0  0  0  0  0  0  0  0
  169.4160  160.9307  112.3180 C   0  0  0  0  0  0  0  0  0  0  0  0
  171.5166  160.3787  113.4459 C   0  0  0  0  0  0  0  0  0  0  0  0
  172.0333  161.4950  114.3032 C   0  0  0  0  0  0  0  0  0  0  0  0
  173.1469  162.2757  113.5960 C   0  0  2  0  0  0  0  0  0  0  0  0
  173.0609  163.6762  114.1049 C   0  0  0  0  0  0  0  0  0  0  0  0
  174.0533  164.6183  113.4864 C   0  0  0  0  0  0  0  0  0  0  0  0
  174.0108  164.6294  111.9865 C   0  0  2  0  0  0  0  0  0  0  0  0
  172.8213  165.4708  111.5793 C   0  0  0  0  0  0  0  0  0  0  0  0
  173.7568  163.2497  111.4301 C   0  0  0  0  0  0  0  0  0  0  0  0
  174.3122  162.9155  110.2730 C   0  0  0  0  0  0  0  0  0  0  0  0
  175.1791  163.7788  109.4339 C   0  0  0  0  0  0  0  0  0  0  0  0
  175.1367  165.1718  109.9317 C   0  0  2  0  0  0  0  0  0  0  0  0
  175.9831  166.1539  109.1813 C   0  0  1  0  0  0  0  0  0  0  0  0
  177.4091  165.7775  109.0829 C   0  0  0  0  0  0  0  0  0  0  0  0
  175.4011  166.2101  107.7663 C   0  0  0  0  0  0  0  0  0  0  0  0
  176.0575  167.2214  106.9099 C   0  0  0  0  0  0  0  0  0  0  0  0
  176.4024  168.5233  107.5485 C   0  0  2  0  0  0  0  0  0  0  0  0
  177.7589  168.8676  107.2921 O   0  0  0  0  0  0  0  0  0  0  0  0
  176.0714  168.6830  108.9743 C   0  0  0  0  0  0  0  0  0  0  0  0
  177.2736  169.3652  109.6580 C   0  0  0  0  0  0  0  0  0  0  0  0
  174.9663  169.7518  109.1105 C   0  0  0  0  0  0  0  0  0  0  0  0
  175.7116  167.5087  109.7709 C   0  0  2  0  0  0  0  0  0  0  0  0
  176.2706  167.4983  111.1791 C   0  0  0  0  0  0  0  0  0  0  0  0
  175.6155  166.4732  112.0444 C   0  0  0  0  0  0  0  0  0  0  0  0
  175.3178  165.1640  111.4136 C   0  0  1  0  0  0  0  0  0  0  0  0
  176.3868  164.1702  111.8573 C   0  0  0  0  0  0  0  0  0  0  0  0
  174.3961  161.5903  113.9121 C   0  0  0  0  0  0  0  0  0  0  0  0
  174.7508  161.4259  115.2399 O   0  0  0  0  0  0  0  0  0  0  0  0
  175.1785  161.1350  113.0463 O   0  0  0  0  0  0  0  0  0  0  0  0
  1  2  1  0
  2  3  1  6
  2  4  1  0
  4  5  1  1
  4  6  1  0
  6  7  1  0
  7  8  1  0
  8  9  1  0
  9 10  1  0
 10 11  1  0
 11 12  1  1
 11 13  1  0
 13 14  2  0
 14 15  1  0
 16 15  1  6
 16 17  1  0
 17 18  1  6
 17 19  1  0
 19 20  1  0
 20 21  1  0
 21 22  1  1
 21 23  1  0
 23 24  1  0
 23 25  1  0
 23 26  1  0
 26 27  1  1
 27 28  1  0
 28 29  1  0
 29 30  1  6
  8 31  1  6
 31 32  1  0
 31 33  2  0
  8  1  1  0
 29 11  1  0
  1 13  1  6
 29 16  1  0
 26 17  1  0
M  END
$$$$
