
     RDKit          3D

 33 37  0  0  0  0  0  0  0  0999 V2000
  173.9409  161.9698  112.5717 C   0  0  2  0  0  0  0  0  0  0  0  0
  173.3257  161.6656  113.8922 C   0  0  1  0  0  0  0  0  0  0  0  0
  171.8405  161.5953  113.9312 C   0  0  0  0  0  0  0  0  0  0  0  0
  173.8580  160.2819  114.3047 C   0  0  2  0  0  0  0  0  0  0  0  0
  173.6414  160.0519  115.7836 C   0  0  0  0  0  0  0  0  0  0  0  0
  175.3177  160.1522  114.0033 C   0  0  0  0  0  0  0  0  0  0  0  0
  175.9843  161.4912  113.8998 C   0  0  0  0  0  0  0  0  0  0  0  0
  175.3883  162.3277  112.7619 C   0  0  2  0  0  0  0  0  0  0  0  0
  175.5210  163.7542  113.1806 C   0  0  0  0  0  0  0  0  0  0  0  0
  174.9432  164.7387  112.2051 C   0  0  0  0  0  0  0  0  0  0  0  0
  173.5139  164.4552  111.8470 C   0  0  2  0  0  0  0  0  0  0  0  0
  172.6593  164.9509  112.9927 C   0  0  0  0  0  0  0  0  0  0  0  0
  173.2535  162.9723  111.7427 C   0  0  0  0  0  0  0  0  0  0  0  0
  172.3660  162.5405  110.8567 C   0  0  0  0  0  0  0  0  0  0  0  0
  171.5695  163.3823  109.9305 C   0  0  0  0  0  0  0  0  0  0  0  0
  171.7035  164.8082  110.3036 C   0  0  2  0  0  0  0  0  0  0  0  0
  170.9582  165.7771  109.4377 C   0  0  1  0  0  0  0  0  0  0  0  0
  171.2802  165.6789  107.9984 C   0  0  0  0  0  0  0  0  0  0  0  0
  169.4749  165.4462  109.6229 C   0  0  0  0  0  0  0  0  0  0  0  0
  168.5791  166.3854  108.9140 C   0  0  0  0  0  0  0  0  0  0  0  0
  168.9562  167.8271  108.9425 C   0  0  2  0  0  0  0  0  0  0  0  0
  168.9441  168.3781  107.6307 O   0  0  0  0  0  0  0  0  0  0  0  0
  170.1899  168.1868  109.6612 C   0  0  0  0  0  0  0  0  0  0  0  0
  170.9514  169.2112  108.7958 C   0  0  0  0  0  0  0  0  0  0  0  0
  169.8147  169.0215  110.9041 C   0  0  0  0  0  0  0  0  0  0  0  0
  171.1354  167.1383  110.0482 C   0  0  2  0  0  0  0  0  0  0  0  0
  172.5963  167.5073  109.8896 C   0  0  0  0  0  0  0  0  0  0  0  0
  173.5039  166.5569  110.5977 C   0  0  0  0  0  0  0  0  0  0  0  0
  173.1468  165.1189  110.5252 C   0  0  1  0  0  0  0  0  0  0  0  0
  174.0440  164.4597  109.4822 C   0  0  0  0  0  0  0  0  0  0  0  0
  176.1339  161.9764  111.5574 C   0  0  0  0  0  0  0  0  0  0  0  0
  177.3479  162.5967  111.3181 O   0  0  0  0  0  0  0  0  0  0  0  0
  175.7397  161.1376  110.7148 O   0  0  0  0  0  0  0  0  0  0  0  0
  1  2  1  0
  2  3  1  6
  2  4  1  0
  4  5  1  1
  4  6  1  0
  6  7  1  0
  7  8  1  0
  8  9  1  0
  9 10  1  0
 10 11  1  0
 11 12  1  1
 11 13  1  0
 13 14  2  0
 14 15  1  0
 16 15  1  6
 16 17  1  0
 17 18  1  6
 17 19  1  0
 19 20  1  0
 20 21  1  0
 21 22  1  6
 21 23  1  0
 23 24  1  0
 23 25  1  0
 23 26  1  0
 26 27  1  6
 27 28  1  0
 28 29  1  0
 29 30  1  6
  8 31  1  6
 31 32  1  0
 31 33  2  0
  8  1  1  0
 29 11  1  0
  1 13  1  1
 29 16  1  0
 26 17  1  0
M  END
$$$$
