
     RDKit          3D

 33 37  0  0  0  0  0  0  0  0999 V2000
  191.7133  158.8365  121.7295 C   0  0  2  0  0  0  0  0  0  0  0  0
  193.0947  159.3887  121.6874 C   0  0  1  0  0  0  0  0  0  0  0  0
  193.4172  160.4447  122.6841 C   0  0  0  0  0  0  0  0  0  0  0  0
  194.0386  158.2039  121.9579 C   0  0  2  0  0  0  0  0  0  0  0  0
  195.4500  158.5457  121.5359 C   0  0  0  0  0  0  0  0  0  0  0  0
  193.5957  156.9802  121.2198 C   0  0  0  0  0  0  0  0  0  0  0  0
  192.7317  157.3237  120.0435 C   0  0  0  0  0  0  0  0  0  0  0  0
  191.4507  158.0435  120.4800 C   0  0  2  0  0  0  0  0  0  0  0  0
  191.0802  158.9521  119.3552 C   0  0  0  0  0  0  0  0  0  0  0  0
  189.8613  159.7895  119.6159 C   0  0  0  0  0  0  0  0  0  0  0  0
  189.9411  160.5794  120.8892 C   0  0  2  0  0  0  0  0  0  0  0  0
  190.8193  161.7805  120.6158 C   0  0  0  0  0  0  0  0  0  0  0  0
  190.6293  159.7987  121.9822 C   0  0  0  0  0  0  0  0  0  0  0  0
  190.2395  159.9775  123.2372 C   0  0  0  0  0  0  0  0  0  0  0  0
  189.1707  160.8955  123.7019 C   0  0  0  0  0  0  0  0  0  0  0  0
  188.7614  161.7925  122.5982 C   0  0  2  0  0  0  0  0  0  0  0  0
  187.6724  162.7675  122.9260 C   0  0  1  0  0  0  0  0  0  0  0  0
  186.4389  162.1470  123.4533 C   0  0  0  0  0  0  0  0  0  0  0  0
  188.2479  163.6879  124.0056 C   0  0  0  0  0  0  0  0  0  0  0  0
  187.3333  164.7896  124.3754 C   0  0  0  0  0  0  0  0  0  0  0  0
  186.5807  165.4411  123.2660 C   0  0  2  0  0  0  0  0  0  0  0  0
  185.1924  165.5101  123.5700 O   0  0  0  0  0  0  0  0  0  0  0  0
  186.8042  164.9243  121.9055 C   0  0  0  0  0  0  0  0  0  0  0  0
  185.4300  164.8269  121.2125 C   0  0  0  0  0  0  0  0  0  0  0  0
  187.5157  166.0115  121.0723 C   0  0  0  0  0  0  0  0  0  0  0  0
  187.4900  163.6443  121.7199 C   0  0  2  0  0  0  0  0  0  0  0  0
  186.9222  162.7708  120.6198 C   0  0  0  0  0  0  0  0  0  0  0  0
  187.8397  161.6530  120.2494 C   0  0  0  0  0  0  0  0  0  0  0  0
  188.5494  160.9793  121.3643 C   0  0  1  0  0  0  0  0  0  0  0  0
  187.8322  159.6652  121.6574 C   0  0  0  0  0  0  0  0  0  0  0  0
  190.4697  157.0019  120.7676 C   0  0  0  0  0  0  0  0  0  0  0  0
  190.2680  155.9982  119.8361 O   0  0  0  0  0  0  0  0  0  0  0  0
  189.7892  156.9578  121.8183 O   0  0  0  0  0  0  0  0  0  0  0  0
  1  2  1  0
  2  3  1  1
  2  4  1  0
  4  5  1  6
  4  6  1  0
  6  7  1  0
  7  8  1  0
  8  9  1  0
  9 10  1  0
 10 11  1  0
 11 12  1  6
 11 13  1  0
 13 14  2  0
 14 15  1  0
 16 15  1  1
 16 17  1  0
 17 18  1  1
 17 19  1  0
 19 20  1  0
 20 21  1  0
 21 22  1  1
 21 23  1  0
 23 24  1  0
 23 25  1  0
 23 26  1  0
 26 27  1  6
 27 28  1  0
 28 29  1  0
 29 30  1  1
  8 31  1  1
 31 32  1  0
 31 33  2  0
  8  1  1  0
 29 11  1  0
  1 13  1  6
 29 16  1  0
 26 17  1  0
M  END
$$$$
