
     RDKit          3D

 33 37  0  0  0  0  0  0  0  0999 V2000
  116.4947  146.4357  158.1886 C   0  0  2  0  0  0  0  0  0  0  0  0
  115.6530  145.2612  157.8324 C   0  0  1  0  0  0  0  0  0  0  0  0
  114.3616  145.1264  158.5580 C   0  0  0  0  0  0  0  0  0  0  0  0
  115.3216  145.4089  156.3369 C   0  0  2  0  0  0  0  0  0  0  0  0
  114.8347  144.0937  155.7712 C   0  0  0  0  0  0  0  0  0  0  0  0
  116.5189  145.8566  155.5594 C   0  0  0  0  0  0  0  0  0  0  0  0
  117.7970  145.5361  156.2747 C   0  0  0  0  0  0  0  0  0  0  0  0
  117.8770  146.2522  157.6277 C   0  0  2  0  0  0  0  0  0  0  0  0
  118.6871  145.3698  158.5182 C   0  0  0  0  0  0  0  0  0  0  0  0
  118.8402  145.8839  159.9207 C   0  0  0  0  0  0  0  0  0  0  0  0
  117.5330  146.1991  160.5867 C   0  0  2  0  0  0  0  0  0  0  0  0
  116.9325  144.8856  161.0368 C   0  0  0  0  0  0  0  0  0  0  0  0
  116.5467  146.7978  159.6137 C   0  0  0  0  0  0  0  0  0  0  0  0
  115.6829  147.7023  160.0552 C   0  0  0  0  0  0  0  0  0  0  0  0
  115.5707  148.2025  161.4473 C   0  0  0  0  0  0  0  0  0  0  0  0
  116.3872  147.3630  162.3521 C   0  0  2  0  0  0  0  0  0  0  0  0
  116.3775  147.7665  163.7948 C   0  0  1  0  0  0  0  0  0  0  0  0
  116.7756  149.1693  164.0367 C   0  0  0  0  0  0  0  0  0  0  0  0
  114.9326  147.5876  164.2679 C   0  0  0  0  0  0  0  0  0  0  0  0
  114.7610  147.8428  165.7145 C   0  0  0  0  0  0  0  0  0  0  0  0
  115.8333  147.3390  166.6190 C   0  0  2  0  0  0  0  0  0  0  0  0
  116.2759  148.3663  167.4984 O   0  0  0  0  0  0  0  0  0  0  0  0
  116.9711  146.6446  165.9938 C   0  0  0  0  0  0  0  0  0  0  0  0
  118.2582  147.1530  166.6743 C   0  0  0  0  0  0  0  0  0  0  0  0
  116.9402  145.1606  166.4171 C   0  0  0  0  0  0  0  0  0  0  0  0
  117.1669  146.7321  164.5456 C   0  0  2  0  0  0  0  0  0  0  0  0
  118.6098  146.8709  164.1049 C   0  0  0  0  0  0  0  0  0  0  0  0
  118.7855  146.6215  162.6436 C   0  0  0  0  0  0  0  0  0  0  0  0
  117.7375  147.1666  161.7462 C   0  0  1  0  0  0  0  0  0  0  0  0
  118.2751  148.4456  161.1119 C   0  0  0  0  0  0  0  0  0  0  0  0
  118.4691  147.5606  157.3675 C   0  0  0  0  0  0  0  0  0  0  0  0
  119.6003  147.6364  156.5735 O   0  0  0  0  0  0  0  0  0  0  0  0
  118.0125  148.6342  157.8235 O   0  0  0  0  0  0  0  0  0  0  0  0
  1  2  1  0
  2  3  1  1
  2  4  1  0
  4  5  1  6
  4  6  1  0
  6  7  1  0
  7  8  1  0
  8  9  1  0
  9 10  1  0
 10 11  1  0
 11 12  1  1
 11 13  1  0
 13 14  2  0
 14 15  1  0
 16 15  1  6
 16 17  1  0
 17 18  1  6
 17 19  1  0
 19 20  1  0
 20 21  1  0
 21 22  1  6
 21 23  1  0
 23 24  1  0
 23 25  1  0
 23 26  1  0
 26 27  1  1
 27 28  1  0
 28 29  1  0
 29 30  1  6
  8 31  1  6
 31 32  1  0
 31 33  2  0
  8  1  1  0
 29 11  1  0
  1 13  1  1
 29 16  1  0
 26 17  1  0
M  END
$$$$
