
     RDKit          3D

 33 37  0  0  0  0  0  0  0  0999 V2000
  165.6384  152.4155  126.9435 C   0  0  2  0  0  0  0  0  0  0  0  0
  166.4104  152.8898  125.7628 C   0  0  1  0  0  0  0  0  0  0  0  0
  165.8039  152.6362  124.4286 C   0  0  0  0  0  0  0  0  0  0  0  0
  166.5416  154.4149  125.9208 C   0  0  2  0  0  0  0  0  0  0  0  0
  167.6378  154.9465  125.0249 C   0  0  0  0  0  0  0  0  0  0  0  0
  166.8503  154.7874  127.3366 C   0  0  0  0  0  0  0  0  0  0  0  0
  167.4663  153.6462  128.0891 C   0  0  0  0  0  0  0  0  0  0  0  0
  166.5162  152.4456  128.1632 C   0  0  2  0  0  0  0  0  0  0  0  0
  167.3830  151.2314  128.2106 C   0  0  0  0  0  0  0  0  0  0  0  0
  166.6259  149.9349  128.2385 C   0  0  0  0  0  0  0  0  0  0  0  0
  165.6364  149.7975  127.1188 C   0  0  2  0  0  0  0  0  0  0  0  0
  166.4151  149.4209  125.8777 C   0  0  0  0  0  0  0  0  0  0  0  0
  164.9663  151.1137  126.8083 C   0  0  0  0  0  0  0  0  0  0  0  0
  163.7050  151.1071  126.3981 C   0  0  0  0  0  0  0  0  0  0  0  0
  162.8536  149.9088  126.1978 C   0  0  0  0  0  0  0  0  0  0  0  0
  163.6819  148.6844  126.2674 C   0  0  2  0  0  0  0  0  0  0  0  0
  162.9436  147.3923  126.0953 C   0  0  1  0  0  0  0  0  0  0  0  0
  161.8203  147.2036  127.0373 C   0  0  0  0  0  0  0  0  0  0  0  0
  162.3793  147.4209  124.6725 C   0  0  0  0  0  0  0  0  0  0  0  0
  161.7027  146.1620  124.2924 C   0  0  0  0  0  0  0  0  0  0  0  0
  162.3436  144.8920  124.7374 C   0  0  2  0  0  0  0  0  0  0  0  0
  161.3970  144.0478  125.3821 O   0  0  0  0  0  0  0  0  0  0  0  0
  163.5833  145.0025  125.5241 C   0  0  0  0  0  0  0  0  0  0  0  0
  163.4895  143.9925  126.6857 C   0  0  0  0  0  0  0  0  0  0  0  0
  164.7523  144.4362  124.6903 C   0  0  0  0  0  0  0  0  0  0  0  0
  163.9715  146.2967  126.0875 C   0  0  2  0  0  0  0  0  0  0  0  0
  164.5614  146.2336  127.4817 C   0  0  0  0  0  0  0  0  0  0  0  0
  165.2385  147.5056  127.8716 C   0  0  0  0  0  0  0  0  0  0  0  0
  164.5697  148.7657  127.4649 C   0  0  1  0  0  0  0  0  0  0  0  0
  163.8440  149.3312  128.6818 C   0  0  0  0  0  0  0  0  0  0  0  0
  165.6882  152.6472  129.3480 C   0  0  0  0  0  0  0  0  0  0  0  0
  166.2886  153.0812  130.5171 O   0  0  0  0  0  0  0  0  0  0  0  0
  164.4514  152.4498  129.3745 O   0  0  0  0  0  0  0  0  0  0  0  0
  1  2  1  0
  2  3  1  6
  2  4  1  0
  4  5  1  6
  4  6  1  0
  6  7  1  0
  7  8  1  0
  8  9  1  0
  9 10  1  0
 10 11  1  0
 11 12  1  6
 11 13  1  0
 13 14  2  0
 14 15  1  0
 16 15  1  1
 16 17  1  0
 17 18  1  1
 17 19  1  0
 19 20  1  0
 20 21  1  0
 21 22  1  1
 21 23  1  0
 23 24  1  0
 23 25  1  0
 23 26  1  0
 26 27  1  1
 27 28  1  0
 28 29  1  0
 29 30  1  1
  8 31  1  1
 31 32  1  0
 31 33  2  0
  8  1  1  0
 29 11  1  0
  1 13  1  6
 29 16  1  0
 26 17  1  0
M  END
$$$$
