
     RDKit          3D

 33 37  0  0  0  0  0  0  0  0999 V2000
  148.7907  165.6826  128.0437 C   0  0  2  0  0  0  0  0  0  0  0  0
  147.9877  165.8416  126.8007 C   0  0  1  0  0  0  0  0  0  0  0  0
  147.7376  167.2357  126.3467 C   0  0  0  0  0  0  0  0  0  0  0  0
  148.7786  165.1346  125.6859 C   0  0  2  0  0  0  0  0  0  0  0  0
  147.8881  164.8700  124.4927 C   0  0  0  0  0  0  0  0  0  0  0  0
  149.3447  163.8352  126.1651 C   0  0  0  0  0  0  0  0  0  0  0  0
  148.5941  163.3060  127.3501 C   0  0  0  0  0  0  0  0  0  0  0  0
  148.6742  164.2688  128.5402 C   0  0  2  0  0  0  0  0  0  0  0  0
  147.4060  164.0893  129.3066 C   0  0  0  0  0  0  0  0  0  0  0  0
  147.2738  164.9925  130.4989 C   0  0  0  0  0  0  0  0  0  0  0  0
  147.4563  166.4452  130.1702 C   0  0  2  0  0  0  0  0  0  0  0  0
  146.1650  166.9281  129.5473 C   0  0  0  0  0  0  0  0  0  0  0  0
  148.5255  166.6455  129.1240 C   0  0  0  0  0  0  0  0  0  0  0  0
  149.2736  167.7394  129.1768 C   0  0  0  0  0  0  0  0  0  0  0  0
  149.1680  168.8273  130.1799 C   0  0  0  0  0  0  0  0  0  0  0  0
  147.9318  168.6607  130.9762 C   0  0  2  0  0  0  0  0  0  0  0  0
  147.7047  169.6881  132.0424 C   0  0  1  0  0  0  0  0  0  0  0  0
  148.8189  169.8228  133.0044 C   0  0  0  0  0  0  0  0  0  0  0  0
  147.5386  171.0212  131.3082 C   0  0  0  0  0  0  0  0  0  0  0  0
  147.1973  172.1413  132.2115 C   0  0  0  0  0  0  0  0  0  0  0  0
  146.2306  171.8515  133.3084 C   0  0  2  0  0  0  0  0  0  0  0  0
  146.7384  172.2986  134.5601 O   0  0  0  0  0  0  0  0  0  0  0  0
  145.7115  170.4769  133.4032 C   0  0  0  0  0  0  0  0  0  0  0  0
  145.7219  170.0767  134.8925 C   0  0  0  0  0  0  0  0  0  0  0  0
  144.2027  170.4927  133.0780 C   0  0  0  0  0  0  0  0  0  0  0  0
  146.3595  169.4035  132.6476 C   0  0  2  0  0  0  0  0  0  0  0  0
  146.4763  168.0854  133.3855 C   0  0  0  0  0  0  0  0  0  0  0  0
  146.8283  166.9538  132.4778 C   0  0  0  0  0  0  0  0  0  0  0  0
  147.8262  167.2384  131.4177 C   0  0  1  0  0  0  0  0  0  0  0  0
  149.1702  166.6745  131.8682 C   0  0  0  0  0  0  0  0  0  0  0  0
  149.8838  163.9152  129.2762 C   0  0  0  0  0  0  0  0  0  0  0  0
  149.9137  162.7238  129.9801 O   0  0  0  0  0  0  0  0  0  0  0  0
  150.9110  164.6313  129.3120 O   0  0  0  0  0  0  0  0  0  0  0  0
  1  2  1  0
  2  3  1  6
  2  4  1  0
  4  5  1  6
  4  6  1  0
  6  7  1  0
  7  8  1  0
  8  9  1  0
  9 10  1  0
 10 11  1  0
 11 12  1  6
 11 13  1  0
 13 14  2  0
 14 15  1  0
 16 15  1  1
 16 17  1  0
 17 18  1  1
 17 19  1  0
 19 20  1  0
 20 21  1  0
 21 22  1  1
 21 23  1  0
 23 24  1  0
 23 25  1  0
 23 26  1  0
 26 27  1  1
 27 28  1  0
 28 29  1  0
 29 30  1  1
  8 31  1  1
 31 32  1  0
 31 33  2  0
  8  1  1  0
 29 11  1  0
  1 13  1  1
 29 16  1  0
 26 17  1  0
M  END
$$$$
