
     RDKit          3D

 33 37  0  0  0  0  0  0  0  0999 V2000
  119.1809  143.7297  145.0795 C   0  0  2  0  0  0  0  0  0  0  0  0
  118.2934  142.5868  144.7316 C   0  0  1  0  0  0  0  0  0  0  0  0
  117.0706  142.4203  145.5619 C   0  0  0  0  0  0  0  0  0  0  0  0
  117.8313  142.8280  143.2838 C   0  0  2  0  0  0  0  0  0  0  0  0
  117.2762  141.5541  142.6872 C   0  0  0  0  0  0  0  0  0  0  0  0
  118.9604  143.3109  142.4291 C   0  0  0  0  0  0  0  0  0  0  0  0
  120.2927  142.9357  143.0055 C   0  0  0  0  0  0  0  0  0  0  0  0
  120.5044  143.5677  144.3858 C   0  0  2  0  0  0  0  0  0  0  0  0
  121.3781  142.6254  145.1452 C   0  0  0  0  0  0  0  0  0  0  0  0
  121.6640  143.0522  146.5563 C   0  0  0  0  0  0  0  0  0  0  0  0
  120.4267  143.3385  147.3554 C   0  0  2  0  0  0  0  0  0  0  0  0
  119.8498  142.0058  147.7790 C   0  0  0  0  0  0  0  0  0  0  0  0
  119.3660  144.0043  146.5131 C   0  0  0  0  0  0  0  0  0  0  0  0
  118.5587  144.8883  147.0840 C   0  0  0  0  0  0  0  0  0  0  0  0
  118.5794  145.3042  148.5079 C   0  0  0  0  0  0  0  0  0  0  0  0
  119.4614  144.4038  149.2835 C   0  0  2  0  0  0  0  0  0  0  0  0
  119.5872  144.7192  150.7425 C   0  0  1  0  0  0  0  0  0  0  0  0
  120.0261  146.1010  151.0305 C   0  0  0  0  0  0  0  0  0  0  0  0
  118.1881  144.5254  151.3331 C   0  0  0  0  0  0  0  0  0  0  0  0
  118.1510  144.6939  152.8018 C   0  0  0  0  0  0  0  0  0  0  0  0
  119.2925  144.1263  153.5740 C   0  0  2  0  0  0  0  0  0  0  0  0
  119.8274  145.0943  154.4692 O   0  0  0  0  0  0  0  0  0  0  0  0
  120.3593  143.4605  152.8081 C   0  0  0  0  0  0  0  0  0  0  0  0
  121.7096  143.9148  153.3984 C   0  0  0  0  0  0  0  0  0  0  0  0
  120.3447  141.9539  153.1433 C   0  0  0  0  0  0  0  0  0  0  0  0
  120.4255  143.6339  151.3559 C   0  0  2  0  0  0  0  0  0  0  0  0
  121.8249  143.7857  150.7954 C   0  0  0  0  0  0  0  0  0  0  0  0
  121.8649  143.6237  149.3120 C   0  0  0  0  0  0  0  0  0  0  0  0
  120.7488  144.2319  148.5472 C   0  0  1  0  0  0  0  0  0  0  0  0
  121.2460  145.5420  147.9441 C   0  0  0  0  0  0  0  0  0  0  0  0
  121.0900  144.8839  144.1515 C   0  0  0  0  0  0  0  0  0  0  0  0
  122.4625  145.0323  144.2516 O   0  0  0  0  0  0  0  0  0  0  0  0
  120.4202  145.9019  143.8616 O   0  0  0  0  0  0  0  0  0  0  0  0
  1  2  1  0
  2  3  1  1
  2  4  1  0
  4  5  1  6
  4  6  1  0
  6  7  1  0
  7  8  1  0
  8  9  1  0
  9 10  1  0
 10 11  1  0
 11 12  1  1
 11 13  1  0
 13 14  2  0
 14 15  1  0
 16 15  1  6
 16 17  1  0
 17 18  1  6
 17 19  1  0
 19 20  1  0
 20 21  1  0
 21 22  1  6
 21 23  1  0
 23 24  1  0
 23 25  1  0
 23 26  1  0
 26 27  1  1
 27 28  1  0
 28 29  1  0
 29 30  1  6
  8 31  1  6
 31 32  1  0
 31 33  2  0
  8  1  1  0
 29 11  1  0
  1 13  1  1
 29 16  1  0
 26 17  1  0
M  END
$$$$
