
     RDKit          3D

 33 37  0  0  0  0  0  0  0  0999 V2000
  174.3606  165.6664  111.2627 C   0  0  2  0  0  0  0  0  0  0  0  0
  174.8513  166.8566  110.5162 C   0  0  1  0  0  0  0  0  0  0  0  0
  173.8378  167.8913  110.1778 C   0  0  0  0  0  0  0  0  0  0  0  0
  175.9017  167.5264  111.4196 C   0  0  2  0  0  0  0  0  0  0  0  0
  176.7556  168.4829  110.6178 C   0  0  0  0  0  0  0  0  0  0  0  0
  176.7893  166.5085  112.0635 C   0  0  0  0  0  0  0  0  0  0  0  0
  176.8035  165.2200  111.2968 C   0  0  0  0  0  0  0  0  0  0  0  0
  175.4080  164.5888  111.2355 C   0  0  2  0  0  0  0  0  0  0  0  0
  175.3477  163.8370  109.9474 C   0  0  0  0  0  0  0  0  0  0  0  0
  174.0247  163.1791  109.6796 C   0  0  0  0  0  0  0  0  0  0  0  0
  172.8615  164.1236  109.7604 C   0  0  2  0  0  0  0  0  0  0  0  0
  172.8343  164.9108  108.4688 C   0  0  0  0  0  0  0  0  0  0  0  0
  173.0472  165.1368  110.8634 C   0  0  0  0  0  0  0  0  0  0  0  0
  171.9785  165.5733  111.5163 C   0  0  0  0  0  0  0  0  0  0  0  0
  170.5730  165.1672  111.2698 C   0  0  0  0  0  0  0  0  0  0  0  0
  170.4849  164.3941  110.0109 C   0  0  2  0  0  0  0  0  0  0  0  0
  169.1168  163.9057  109.6452 C   0  0  1  0  0  0  0  0  0  0  0  0
  168.4602  163.0951  110.6924 C   0  0  0  0  0  0  0  0  0  0  0  0
  168.2746  165.1624  109.4102 C   0  0  0  0  0  0  0  0  0  0  0  0
  166.9077  164.8625  108.9317 C   0  0  0  0  0  0  0  0  0  0  0  0
  166.7691  163.7627  107.9353 C   0  0  2  0  0  0  0  0  0  0  0  0
  165.7637  162.8401  108.3383 O   0  0  0  0  0  0  0  0  0  0  0  0
  167.9997  163.0658  107.5254 C   0  0  0  0  0  0  0  0  0  0  0  0
  167.6900  161.5555  107.4897 C   0  0  0  0  0  0  0  0  0  0  0  0
  168.2761  163.3794  106.0396 C   0  0  0  0  0  0  0  0  0  0  0  0
  169.2295  163.2516  108.2975 C   0  0  2  0  0  0  0  0  0  0  0  0
  170.0615  161.9989  108.4820 C   0  0  0  0  0  0  0  0  0  0  0  0
  171.4395  162.2974  108.9723 C   0  0  0  0  0  0  0  0  0  0  0  0
  171.5633  163.3617  109.9982 C   0  0  1  0  0  0  0  0  0  0  0  0
  171.7344  162.6916  111.3580 C   0  0  0  0  0  0  0  0  0  0  0  0
  175.2774  163.7595  112.4294 C   0  0  0  0  0  0  0  0  0  0  0  0
  176.3577  162.9941  112.8329 O   0  0  0  0  0  0  0  0  0  0  0  0
  174.2354  163.6955  113.1217 O   0  0  0  0  0  0  0  0  0  0  0  0
  1  2  1  0
  2  3  1  1
  2  4  1  0
  4  5  1  6
  4  6  1  0
  6  7  1  0
  7  8  1  0
  8  9  1  0
  9 10  1  0
 10 11  1  0
 11 12  1  6
 11 13  1  0
 13 14  2  0
 14 15  1  0
 16 15  1  1
 16 17  1  0
 17 18  1  1
 17 19  1  0
 19 20  1  0
 20 21  1  0
 21 22  1  1
 21 23  1  0
 23 24  1  0
 23 25  1  0
 23 26  1  0
 26 27  1  1
 27 28  1  0
 28 29  1  0
 29 30  1  1
  8 31  1  1
 31 32  1  0
 31 33  2  0
  8  1  1  0
 29 11  1  0
  1 13  1  6
 29 16  1  0
 26 17  1  0
M  END
$$$$
