
     RDKit          3D

 37 41  0  0  0  0  0  0  0  0999 V2000
  191.2932  161.4248  123.2178 C   0  0  0  0  0  0  0  0  0  0  0  0
  190.1212  160.9102  122.3967 C   0  0  2  0  0  0  0  0  0  0  0  0
  189.2172  160.2190  123.3364 C   0  0  0  0  0  0  0  0  0  0  0  0
  189.3621  158.7168  123.2049 C   0  0  2  0  0  0  0  0  0  0  0  0
  188.3002  157.9777  123.8560 C   0  0  0  0  0  0  0  0  0  0  0  0
  187.9913  158.2291  125.1778 C   0  0  0  0  0  0  0  0  0  0  0  0
  186.9707  157.5605  125.8214 C   0  0  0  0  0  0  0  0  0  0  0  0
  186.2120  156.6078  125.1684 C   0  0  0  0  0  0  0  0  0  0  0  0
  186.5213  156.3577  123.8489 C   0  0  0  0  0  0  0  0  0  0  0  0
  187.5492  157.0303  123.1988 C   0  0  0  0  0  0  0  0  0  0  0  0
  184.9151  155.7626  125.9975 S   0  0  0  0  0  6  0  0  0  0  0  0
  185.5147  155.2226  127.5712 C   0  0  0  0  0  0  0  0  0  0  0  0
  184.4212  154.6371  125.1533 O   0  0  0  0  0  0  0  0  0  0  0  0
  183.7750  156.7433  126.1714 O   0  0  0  0  0  0  0  0  0  0  0  0
  190.7129  158.2632  123.0552 C   0  0  0  0  0  0  0  0  0  0  0  0
  191.3146  157.4155  123.8074 C   0  0  0  0  0  0  0  0  0  0  0  0
  190.7023  156.8123  124.9484 C   0  0  0  0  0  0  0  0  0  0  0  0
  190.8318  155.2870  124.8897 C   0  0  0  0  0  0  0  0  0  0  0  0
  192.3320  155.0710  124.9081 C   0  0  0  0  0  0  0  0  0  0  0  0
  192.8162  154.2798  125.7046 O   0  0  0  0  0  0  0  0  0  0  0  0
  193.1388  155.8451  123.9423 C   0  0  0  0  0  0  0  0  0  0  0  0
  192.6646  156.9424  123.4209 C   0  0  0  0  0  0  0  0  0  0  0  0
  193.4332  157.6637  122.3508 C   0  0  0  0  0  0  0  0  0  0  0  0
  192.3484  158.0557  121.2760 C   0  0  0  0  0  0  0  0  0  0  0  0
  191.5115  159.0152  121.9851 C   0  0  1  0  0  0  0  0  0  0  0  0
  190.5903  159.9146  121.3119 C   0  0  2  0  0  0  0  0  0  0  0  0
  191.2422  160.8941  120.3408 C   0  0  0  0  0  0  0  0  0  0  0  0
  190.0971  161.8668  120.1561 C   0  0  0  0  0  0  0  0  0  0  0  0
  189.6140  162.0455  121.6021 C   0  0  2  0  0  0  0  0  0  0  0  0
  190.1930  163.2773  122.0059 O   0  0  0  0  0  0  0  0  0  0  0  0
  188.1319  162.2898  121.6479 C   0  0  0  0  0  0  0  0  0  0  0  0
  187.3579  161.2617  121.2229 F   0  0  0  0  0  0  0  0  0  0  0  0
  187.8398  162.6996  122.9528 F   0  0  0  0  0  0  0  0  0  0  0  0
  187.8681  163.5478  120.8094 C   0  0  0  0  0  0  0  0  0  0  0  0
  186.4994  163.7642  120.8343 F   0  0  0  0  0  0  0  0  0  0  0  0
  188.1983  163.3065  119.4878 F   0  0  0  0  0  0  0  0  0  0  0  0
  188.4953  164.6530  121.2901 F   0  0  0  0  0  0  0  0  0  0  0  0
  2  1  1  1
  2  3  1  0
  3  4  1  0
  4  5  1  1
  5  6  2  0
  6  7  1  0
  7  8  2  0
  8  9  1  0
  9 10  2  0
  8 11  1  0
 11 12  1  0
 11 13  2  0
 11 14  2  0
  4 15  1  0
 15 16  2  0
 16 17  1  0
 17 18  1  0
 18 19  1  0
 19 20  2  0
 19 21  1  0
 21 22  2  0
 22 23  1  0
 23 24  1  0
 25 24  1  6
 25 26  1  0
 26 27  1  6
 27 28  1  0
 28 29  1  0
 29 30  1  1
 29 31  1  0
 31 32  1  0
 31 33  1  0
 31 34  1  0
 34 35  1  0
 34 36  1  0
 34 37  1  0
 26  2  1  0
 29  2  1  0
 10  5  1  0
 25 15  1  0
 22 16  1  0
M  END
$$$$
