
     RDKit          3D

 37 41  0  0  0  0  0  0  0  0999 V2000
  130.4016  166.1107  155.9754 C   0  0  0  0  0  0  0  0  0  0  0  0
  129.5451  165.0686  155.2734 C   0  0  2  0  0  0  0  0  0  0  0  0
  129.9969  163.7510  155.7614 C   0  0  0  0  0  0  0  0  0  0  0  0
  130.8558  163.0647  154.7191 C   0  0  2  0  0  0  0  0  0  0  0  0
  131.0732  161.6584  154.9888 C   0  0  0  0  0  0  0  0  0  0  0  0
  131.9355  160.9266  154.1973 C   0  0  0  0  0  0  0  0  0  0  0  0
  132.1834  159.5916  154.4408 C   0  0  0  0  0  0  0  0  0  0  0  0
  131.5773  158.9282  155.4906 C   0  0  0  0  0  0  0  0  0  0  0  0
  130.7166  159.6597  156.2801 C   0  0  0  0  0  0  0  0  0  0  0  0
  130.4656  161.0048  156.0363 C   0  0  0  0  0  0  0  0  0  0  0  0
  131.9001  157.2285  155.7914 S   0  0  0  0  0  6  0  0  0  0  0  0
  133.0217  157.1039  157.1530 C   0  0  0  0  0  0  0  0  0  0  0  0
  132.4250  156.5843  154.5533 O   0  0  0  0  0  0  0  0  0  0  0  0
  130.5794  156.5703  156.1292 O   0  0  0  0  0  0  0  0  0  0  0  0
  131.7817  163.9306  154.0515 C   0  0  0  0  0  0  0  0  0  0  0  0
  133.0541  163.7762  153.9911 C   0  0  0  0  0  0  0  0  0  0  0  0
  133.7401  162.6966  154.6271 C   0  0  0  0  0  0  0  0  0  0  0  0
  134.6472  161.9689  153.6300 C   0  0  0  0  0  0  0  0  0  0  0  0
  135.6223  163.0488  153.2049 C   0  0  0  0  0  0  0  0  0  0  0  0
  136.8232  162.8216  153.2370 O   0  0  0  0  0  0  0  0  0  0  0  0
  135.0531  164.3400  152.7672 C   0  0  0  0  0  0  0  0  0  0  0  0
  133.8484  164.6835  153.1299 C   0  0  0  0  0  0  0  0  0  0  0  0
  133.2253  165.9381  152.5880 C   0  0  0  0  0  0  0  0  0  0  0  0
  131.7483  165.5245  152.2234 C   0  0  0  0  0  0  0  0  0  0  0  0
  131.1578  165.2263  153.5220 C   0  0  1  0  0  0  0  0  0  0  0  0
  129.7243  165.1354  153.7400 C   0  0  2  0  0  0  0  0  0  0  0  0
  128.9479  166.4173  153.4547 C   0  0  0  0  0  0  0  0  0  0  0  0
  127.6405  166.0783  154.1382 C   0  0  0  0  0  0  0  0  0  0  0  0
  128.1362  165.4673  155.4563 C   0  0  2  0  0  0  0  0  0  0  0  0
  128.0007  166.5240  156.3948 O   0  0  0  0  0  0  0  0  0  0  0  0
  127.1937  164.4034  155.9441 C   0  0  0  0  0  0  0  0  0  0  0  0
  127.0264  163.3465  155.1126 F   0  0  0  0  0  0  0  0  0  0  0  0
  127.6362  164.0391  157.2198 F   0  0  0  0  0  0  0  0  0  0  0  0
  125.8513  165.0963  156.2146 C   0  0  0  0  0  0  0  0  0  0  0  0
  125.0674  164.1898  156.9106 F   0  0  0  0  0  0  0  0  0  0  0  0
  125.1987  165.3345  155.0182 F   0  0  0  0  0  0  0  0  0  0  0  0
  125.9730  166.2293  156.9547 F   0  0  0  0  0  0  0  0  0  0  0  0
  2  1  1  1
  2  3  1  0
  3  4  1  0
  4  5  1  1
  5  6  2  0
  6  7  1  0
  7  8  2  0
  8  9  1  0
  9 10  2  0
  8 11  1  0
 11 12  1  0
 11 13  2  0
 11 14  2  0
  4 15  1  0
 15 16  2  0
 16 17  1  0
 17 18  1  0
 18 19  1  0
 19 20  2  0
 19 21  1  0
 21 22  2  0
 22 23  1  0
 23 24  1  0
 25 24  1  6
 25 26  1  0
 26 27  1  1
 27 28  1  0
 28 29  1  0
 29 30  1  1
 29 31  1  0
 31 32  1  0
 31 33  1  0
 31 34  1  0
 34 35  1  0
 34 36  1  0
 34 37  1  0
 26  2  1  0
 29  2  1  0
 10  5  1  0
 25 15  1  0
 22 16  1  0
M  END
$$$$
