
     RDKit          3D

 37 41  0  0  0  0  0  0  0  0999 V2000
  191.5993  161.7784  119.2874 C   0  0  0  0  0  0  0  0  0  0  0  0
  190.2681  161.3090  119.8531 C   0  0  2  0  0  0  0  0  0  0  0  0
  190.4062  161.3177  121.3225 C   0  0  0  0  0  0  0  0  0  0  0  0
  190.5916  159.9085  121.8468 C   0  0  2  0  0  0  0  0  0  0  0  0
  190.4200  159.8017  123.2810 C   0  0  0  0  0  0  0  0  0  0  0  0
  190.1557  158.5755  123.8574 C   0  0  0  0  0  0  0  0  0  0  0  0
  190.0103  158.4344  125.2219 C   0  0  0  0  0  0  0  0  0  0  0  0
  190.1234  159.5178  126.0723 C   0  0  0  0  0  0  0  0  0  0  0  0
  190.3873  160.7413  125.4958 C   0  0  0  0  0  0  0  0  0  0  0  0
  190.5342  160.8855  124.1212 C   0  0  0  0  0  0  0  0  0  0  0  0
  189.9364  159.3267  127.8079 S   0  0  0  0  0  6  0  0  0  0  0  0
  188.2584  159.6879  128.2335 C   0  0  0  0  0  0  0  0  0  0  0  0
  190.9116  160.1992  128.5229 O   0  0  0  0  0  0  0  0  0  0  0  0
  190.2718  157.8891  128.1432 O   0  0  0  0  0  0  0  0  0  0  0  0
  191.4647  159.0928  121.0562 C   0  0  0  0  0  0  0  0  0  0  0  0
  192.5191  158.4903  121.4703 C   0  0  0  0  0  0  0  0  0  0  0  0
  192.9912  158.5794  122.8156 C   0  0  0  0  0  0  0  0  0  0  0  0
  193.2211  157.1833  123.4026 C   0  0  0  0  0  0  0  0  0  0  0  0
  194.2887  156.6036  122.4961 C   0  0  0  0  0  0  0  0  0  0  0  0
  195.2876  156.0995  122.9888 O   0  0  0  0  0  0  0  0  0  0  0  0
  194.0553  156.6830  121.0393 C   0  0  0  0  0  0  0  0  0  0  0  0
  193.2239  157.5629  120.5543 C   0  0  0  0  0  0  0  0  0  0  0  0
  192.8958  157.5645  119.0885 C   0  0  0  0  0  0  0  0  0  0  0  0
  191.3333  157.7661  119.0298 C   0  0  0  0  0  0  0  0  0  0  0  0
  191.1534  159.1133  119.5558 C   0  0  1  0  0  0  0  0  0  0  0  0
  189.9304  159.8775  119.3794 C   0  0  2  0  0  0  0  0  0  0  0  0
  189.5623  160.1760  117.9293 C   0  0  0  0  0  0  0  0  0  0  0  0
  188.5278  161.2590  118.1490 C   0  0  0  0  0  0  0  0  0  0  0  0
  189.2134  162.1219  119.2174 C   0  0  2  0  0  0  0  0  0  0  0  0
  189.7523  163.2109  118.4828 O   0  0  0  0  0  0  0  0  0  0  0  0
  188.2009  162.7472  120.1350 C   0  0  0  0  0  0  0  0  0  0  0  0
  187.5339  161.8860  120.9412 F   0  0  0  0  0  0  0  0  0  0  0  0
  188.8726  163.7539  120.8362 F   0  0  0  0  0  0  0  0  0  0  0  0
  187.2211  163.5232  119.2444 C   0  0  0  0  0  0  0  0  0  0  0  0
  187.9361  164.5679  118.6804 F   0  0  0  0  0  0  0  0  0  0  0  0
  186.2382  164.1037  120.0259 F   0  0  0  0  0  0  0  0  0  0  0  0
  186.6897  162.7676  118.2480 F   0  0  0  0  0  0  0  0  0  0  0  0
  2  1  1  6
  2  3  1  0
  3  4  1  0
  4  5  1  1
  5  6  2  0
  6  7  1  0
  7  8  2  0
  8  9  1  0
  9 10  2  0
  8 11  1  0
 11 12  1  0
 11 13  2  0
 11 14  2  0
  4 15  1  0
 15 16  2  0
 16 17  1  0
 17 18  1  0
 18 19  1  0
 19 20  2  0
 19 21  1  0
 21 22  2  0
 22 23  1  0
 23 24  1  0
 25 24  1  1
 25 26  1  0
 26 27  1  6
 27 28  1  0
 28 29  1  0
 29 30  1  6
 29 31  1  0
 31 32  1  0
 31 33  1  0
 31 34  1  0
 34 35  1  0
 34 36  1  0
 34 37  1  0
 26  2  1  0
 29  2  1  0
 10  5  1  0
 25 15  1  0
 22 16  1  0
M  END
$$$$
