
     RDKit          3D

 37 41  0  0  0  0  0  0  0  0999 V2000
  163.9949  153.1733  127.1313 C   0  0  0  0  0  0  0  0  0  0  0  0
  165.4029  153.4117  126.6085 C   0  0  2  0  0  0  0  0  0  0  0  0
  165.8383  152.1514  125.9758 C   0  0  0  0  0  0  0  0  0  0  0  0
  166.8038  151.4102  126.8778 C   0  0  2  0  0  0  0  0  0  0  0  0
  167.5101  150.3387  126.2066 C   0  0  0  0  0  0  0  0  0  0  0  0
  166.8054  149.3248  125.5892 C   0  0  0  0  0  0  0  0  0  0  0  0
  167.4459  148.3021  124.9209 C   0  0  0  0  0  0  0  0  0  0  0  0
  168.8245  148.2489  124.8408 C   0  0  0  0  0  0  0  0  0  0  0  0
  169.5270  149.2615  125.4575 C   0  0  0  0  0  0  0  0  0  0  0  0
  168.8834  150.2928  126.1313 C   0  0  0  0  0  0  0  0  0  0  0  0
  169.6296  146.9423  123.9875 S   0  0  0  0  0  6  0  0  0  0  0  0
  171.3242  146.9042  124.4921 C   0  0  0  0  0  0  0  0  0  0  0  0
  169.4719  147.1236  122.5159 O   0  0  0  0  0  0  0  0  0  0  0  0
  168.9321  145.6546  124.3708 O   0  0  0  0  0  0  0  0  0  0  0  0
  166.4457  151.4219  128.2650 C   0  0  0  0  0  0  0  0  0  0  0  0
  166.2666  150.3922  129.0094 C   0  0  0  0  0  0  0  0  0  0  0  0
  166.3792  149.0521  128.5276 C   0  0  0  0  0  0  0  0  0  0  0  0
  167.3291  148.2370  129.4107 C   0  0  0  0  0  0  0  0  0  0  0  0
  166.6460  148.2657  130.7636 C   0  0  0  0  0  0  0  0  0  0  0  0
  166.4704  147.2195  131.3713 O   0  0  0  0  0  0  0  0  0  0  0  0
  166.2235  149.5839  131.2802 C   0  0  0  0  0  0  0  0  0  0  0  0
  166.0483  150.5844  130.4623 C   0  0  0  0  0  0  0  0  0  0  0  0
  165.7364  151.9525  130.9983 C   0  0  0  0  0  0  0  0  0  0  0  0
  166.6452  152.9274  130.1563 C   0  0  0  0  0  0  0  0  0  0  0  0
  166.0977  152.8110  128.8107 C   0  0  1  0  0  0  0  0  0  0  0  0
  166.3741  153.7707  127.7556 C   0  0  2  0  0  0  0  0  0  0  0  0
  165.9053  155.1939  128.0418 C   0  0  0  0  0  0  0  0  0  0  0  0
  165.9943  155.7747  126.6468 C   0  0  0  0  0  0  0  0  0  0  0  0
  165.3670  154.6516  125.8094 C   0  0  2  0  0  0  0  0  0  0  0  0
  164.0388  155.0977  125.5802 O   0  0  0  0  0  0  0  0  0  0  0  0
  165.9875  154.5892  124.4422 C   0  0  0  0  0  0  0  0  0  0  0  0
  167.3335  154.4331  124.4191 F   0  0  0  0  0  0  0  0  0  0  0  0
  165.3027  153.5898  123.7434 F   0  0  0  0  0  0  0  0  0  0  0  0
  165.5801  155.8781  123.7156 C   0  0  0  0  0  0  0  0  0  0  0  0
  166.2907  155.9075  122.5262 F   0  0  0  0  0  0  0  0  0  0  0  0
  165.9982  156.9774  124.4440 F   0  0  0  0  0  0  0  0  0  0  0  0
  164.2521  155.9374  123.4343 F   0  0  0  0  0  0  0  0  0  0  0  0
  2  1  1  1
  2  3  1  0
  3  4  1  0
  4  5  1  6
  5  6  2  0
  6  7  1  0
  7  8  2  0
  8  9  1  0
  9 10  2  0
  8 11  1  0
 11 12  1  0
 11 13  2  0
 11 14  2  0
  4 15  1  0
 15 16  2  0
 16 17  1  0
 17 18  1  0
 18 19  1  0
 19 20  2  0
 19 21  1  0
 21 22  2  0
 22 23  1  0
 23 24  1  0
 25 24  1  1
 25 26  1  0
 26 27  1  1
 27 28  1  0
 28 29  1  0
 29 30  1  6
 29 31  1  0
 31 32  1  0
 31 33  1  0
 31 34  1  0
 34 35  1  0
 34 36  1  0
 34 37  1  0
 26  2  1  0
 29  2  1  0
 10  5  1  0
 25 15  1  0
 22 16  1  0
M  END
$$$$
