
     RDKit          3D

 37 41  0  0  0  0  0  0  0  0999 V2000
  164.0138  152.7720  124.9020 C   0  0  0  0  0  0  0  0  0  0  0  0
  165.5127  152.5907  125.0830 C   0  0  2  0  0  0  0  0  0  0  0  0
  165.7122  152.0457  126.4400 C   0  0  0  0  0  0  0  0  0  0  0  0
  166.2040  153.1274  127.3798 C   0  0  2  0  0  0  0  0  0  0  0  0
  166.7175  152.6112  128.6318 C   0  0  0  0  0  0  0  0  0  0  0  0
  168.0796  152.5306  128.8410 C   0  0  0  0  0  0  0  0  0  0  0  0
  168.6021  152.0663  130.0302 C   0  0  0  0  0  0  0  0  0  0  0  0
  167.7817  151.6608  131.0658 C   0  0  0  0  0  0  0  0  0  0  0  0
  166.4221  151.7417  130.8557 C   0  0  0  0  0  0  0  0  0  0  0  0
  165.8938  152.2093  129.6582 C   0  0  0  0  0  0  0  0  0  0  0  0
  168.4577  151.0713  132.5755 S   0  0  0  0  0  6  0  0  0  0  0  0
  170.0877  150.4624  132.2593 C   0  0  0  0  0  0  0  0  0  0  0  0
  167.5608  150.0352  133.1633 O   0  0  0  0  0  0  0  0  0  0  0  0
  168.5043  152.2399  133.5367 O   0  0  0  0  0  0  0  0  0  0  0  0
  165.5594  154.3958  127.2115 C   0  0  0  0  0  0  0  0  0  0  0  0
  164.9380  155.0558  128.1196 C   0  0  0  0  0  0  0  0  0  0  0  0
  164.7797  154.5820  129.4579 C   0  0  0  0  0  0  0  0  0  0  0  0
  165.2406  155.6400  130.4652 C   0  0  0  0  0  0  0  0  0  0  0  0
  164.3051  156.8011  130.1924 C   0  0  0  0  0  0  0  0  0  0  0  0
  163.7132  157.3284  131.1232 O   0  0  0  0  0  0  0  0  0  0  0  0
  164.1601  157.2374  128.7882 C   0  0  0  0  0  0  0  0  0  0  0  0
  164.4592  156.4242  127.8136 C   0  0  0  0  0  0  0  0  0  0  0  0
  164.4269  156.9059  126.3912 C   0  0  0  0  0  0  0  0  0  0  0  0
  165.7365  156.3166  125.7408 C   0  0  0  0  0  0  0  0  0  0  0  0
  165.4970  154.8791  125.7585 C   0  0  1  0  0  0  0  0  0  0  0  0
  166.2601  153.9374  124.9575 C   0  0  2  0  0  0  0  0  0  0  0  0
  166.1531  154.1414  123.4494 C   0  0  0  0  0  0  0  0  0  0  0  0
  166.7128  152.8174  122.9750 C   0  0  0  0  0  0  0  0  0  0  0  0
  166.0043  151.8332  123.9160 C   0  0  2  0  0  0  0  0  0  0  0  0
  164.9398  151.3165  123.1314 O   0  0  0  0  0  0  0  0  0  0  0  0
  166.8752  150.6431  124.2046 C   0  0  0  0  0  0  0  0  0  0  0  0
  167.7612  150.8006  125.2180 F   0  0  0  0  0  0  0  0  0  0  0  0
  166.0122  149.5579  124.3880 F   0  0  0  0  0  0  0  0  0  0  0  0
  167.6039  150.3047  122.8971 C   0  0  0  0  0  0  0  0  0  0  0  0
  168.0289  148.9901  123.0056 F   0  0  0  0  0  0  0  0  0  0  0  0
  168.7484  151.0741  122.7871 F   0  0  0  0  0  0  0  0  0  0  0  0
  166.8134  150.4205  121.7980 F   0  0  0  0  0  0  0  0  0  0  0  0
  2  1  1  6
  2  3  1  0
  3  4  1  0
  4  5  1  1
  5  6  2  0
  6  7  1  0
  7  8  2  0
  8  9  1  0
  9 10  2  0
  8 11  1  0
 11 12  1  0
 11 13  2  0
 11 14  2  0
  4 15  1  0
 15 16  2  0
 16 17  1  0
 17 18  1  0
 18 19  1  0
 19 20  2  0
 19 21  1  0
 21 22  2  0
 22 23  1  0
 23 24  1  0
 25 24  1  1
 25 26  1  0
 26 27  1  6
 27 28  1  0
 28 29  1  0
 29 30  1  6
 29 31  1  0
 31 32  1  0
 31 33  1  0
 31 34  1  0
 34 35  1  0
 34 36  1  0
 34 37  1  0
 26  2  1  0
 29  2  1  0
 10  5  1  0
 25 15  1  0
 22 16  1  0
M  END
$$$$
