
     RDKit          3D

 37 41  0  0  0  0  0  0  0  0999 V2000
  126.9618  146.2841  136.3680 C   0  0  0  0  0  0  0  0  0  0  0  0
  127.8329  146.3429  135.1229 C   0  0  2  0  0  0  0  0  0  0  0  0
  128.7379  147.4962  135.2936 C   0  0  0  0  0  0  0  0  0  0  0  0
  128.2718  148.6662  134.4516 C   0  0  2  0  0  0  0  0  0  0  0  0
  129.2653  149.7119  134.3206 C   0  0  0  0  0  0  0  0  0  0  0  0
  130.1734  149.9354  135.3360 C   0  0  0  0  0  0  0  0  0  0  0  0
  131.1474  150.9070  135.2339 C   0  0  0  0  0  0  0  0  0  0  0  0
  131.2557  151.7001  134.1074 C   0  0  0  0  0  0  0  0  0  0  0  0
  130.3485  151.4760  133.0944 C   0  0  0  0  0  0  0  0  0  0  0  0
  129.3665  150.4976  133.1955 C   0  0  0  0  0  0  0  0  0  0  0  0
  132.4994  152.9339  133.9880 S   0  0  0  0  0  6  0  0  0  0  0  0
  133.8640  152.4540  135.0054 C   0  0  0  0  0  0  0  0  0  0  0  0
  131.9366  154.2610  134.3694 O   0  0  0  0  0  0  0  0  0  0  0  0
  132.9209  153.0119  132.5361 O   0  0  0  0  0  0  0  0  0  0  0  0
  126.8536  148.8697  134.4543 C   0  0  0  0  0  0  0  0  0  0  0  0
  126.2440  149.9474  134.7909 C   0  0  0  0  0  0  0  0  0  0  0  0
  126.9234  151.1177  135.2484 C   0  0  0  0  0  0  0  0  0  0  0  0
  126.4811  152.3479  134.4499 C   0  0  0  0  0  0  0  0  0  0  0  0
  124.9982  152.4353  134.7515 C   0  0  0  0  0  0  0  0  0  0  0  0
  124.5213  153.4983  135.1221 O   0  0  0  0  0  0  0  0  0  0  0  0
  124.1986  151.2053  134.5763 C   0  0  0  0  0  0  0  0  0  0  0  0
  124.7786  150.0374  134.5902 C   0  0  0  0  0  0  0  0  0  0  0  0
  123.9857  148.7967  134.2928 C   0  0  0  0  0  0  0  0  0  0  0  0
  124.9083  147.9550  133.3306 C   0  0  0  0  0  0  0  0  0  0  0  0
  126.0380  147.6014  134.1806 C   0  0  1  0  0  0  0  0  0  0  0  0
  126.9799  146.5457  133.8504 C   0  0  2  0  0  0  0  0  0  0  0  0
  126.3697  145.1522  133.7355 C   0  0  0  0  0  0  0  0  0  0  0  0
  127.6324  144.3187  133.7820 C   0  0  0  0  0  0  0  0  0  0  0  0
  128.4017  144.9958  134.9248 C   0  0  2  0  0  0  0  0  0  0  0  0
  128.1677  144.1509  136.0416 O   0  0  0  0  0  0  0  0  0  0  0  0
  129.8847  144.9187  134.6949 C   0  0  0  0  0  0  0  0  0  0  0  0
  130.3795  145.7900  133.7824 F   0  0  0  0  0  0  0  0  0  0  0  0
  130.4854  145.0342  135.9526 F   0  0  0  0  0  0  0  0  0  0  0  0
  130.1907  143.4724  134.2829 C   0  0  0  0  0  0  0  0  0  0  0  0
  129.9473  142.6808  135.3941 F   0  0  0  0  0  0  0  0  0  0  0  0
  131.5389  143.3416  134.0018 F   0  0  0  0  0  0  0  0  0  0  0  0
  129.4183  143.0337  133.2546 F   0  0  0  0  0  0  0  0  0  0  0  0
  2  1  1  1
  2  3  1  0
  3  4  1  0
  4  5  1  1
  5  6  2  0
  6  7  1  0
  7  8  2  0
  8  9  1  0
  9 10  2  0
  8 11  1  0
 11 12  1  0
 11 13  2  0
 11 14  2  0
  4 15  1  0
 15 16  2  0
 16 17  1  0
 17 18  1  0
 18 19  1  0
 19 20  2  0
 19 21  1  0
 21 22  2  0
 22 23  1  0
 23 24  1  0
 25 24  1  6
 25 26  1  0
 26 27  1  1
 27 28  1  0
 28 29  1  0
 29 30  1  1
 29 31  1  0
 31 32  1  0
 31 33  1  0
 31 34  1  0
 34 35  1  0
 34 36  1  0
 34 37  1  0
 26  2  1  0
 29  2  1  0
 10  5  1  0
 25 15  1  0
 22 16  1  0
M  END
$$$$
