
     RDKit          3D

 37 41  0  0  0  0  0  0  0  0999 V2000
  144.7776  166.5327  133.8793 C   0  0  0  0  0  0  0  0  0  0  0  0
  146.1615  167.0959  133.5960 C   0  0  2  0  0  0  0  0  0  0  0  0
  146.3654  167.0038  132.1372 C   0  0  0  0  0  0  0  0  0  0  0  0
  147.2820  165.8454  131.8012 C   0  0  2  0  0  0  0  0  0  0  0  0
  147.7771  165.8801  130.4405 C   0  0  0  0  0  0  0  0  0  0  0  0
  146.8924  165.8592  129.3810 C   0  0  0  0  0  0  0  0  0  0  0  0
  147.3288  165.9150  128.0736 C   0  0  0  0  0  0  0  0  0  0  0  0
  148.6742  165.9945  127.7680 C   0  0  0  0  0  0  0  0  0  0  0  0
  149.5564  166.0154  128.8265 C   0  0  0  0  0  0  0  0  0  0  0  0
  149.1186  165.9592  130.1445 C   0  0  0  0  0  0  0  0  0  0  0  0
  149.2187  166.0651  126.1001 S   0  0  0  0  0  6  0  0  0  0  0  0
  149.6353  167.7407  125.7173 C   0  0  0  0  0  0  0  0  0  0  0  0
  148.1666  165.5139  125.1986 O   0  0  0  0  0  0  0  0  0  0  0  0
  150.4376  165.1749  125.9843 O   0  0  0  0  0  0  0  0  0  0  0  0
  147.0352  164.6556  132.5603 C   0  0  0  0  0  0  0  0  0  0  0  0
  146.7693  163.4946  132.0832 C   0  0  0  0  0  0  0  0  0  0  0  0
  146.6547  163.2339  130.6833 C   0  0  0  0  0  0  0  0  0  0  0  0
  147.5439  162.0545  130.2774 C   0  0  0  0  0  0  0  0  0  0  0  0
  146.9761  160.9050  131.0861 C   0  0  0  0  0  0  0  0  0  0  0  0
  146.7010  159.8535  130.5261 O   0  0  0  0  0  0  0  0  0  0  0  0
  146.7844  161.1264  132.5342 C   0  0  0  0  0  0  0  0  0  0  0  0
  146.6909  162.3383  133.0066 C   0  0  0  0  0  0  0  0  0  0  0  0
  146.6168  162.5675  134.4892 C   0  0  0  0  0  0  0  0  0  0  0  0
  147.5879  163.7809  134.7542 C   0  0  0  0  0  0  0  0  0  0  0  0
  146.9291  164.8873  134.0715 C   0  0  1  0  0  0  0  0  0  0  0  0
  147.2577  166.2807  134.3184 C   0  0  2  0  0  0  0  0  0  0  0  0
  147.0177  166.7543  135.7487 C   0  0  0  0  0  0  0  0  0  0  0  0
  147.0820  168.2513  135.5333 C   0  0  0  0  0  0  0  0  0  0  0  0
  146.2408  168.4116  134.2594 C   0  0  2  0  0  0  0  0  0  0  0  0
  144.9754  168.8424  134.7377 O   0  0  0  0  0  0  0  0  0  0  0  0
  146.7410  169.5568  133.4249 C   0  0  0  0  0  0  0  0  0  0  0  0
  147.2088  170.6231  134.1183 F   0  0  0  0  0  0  0  0  0  0  0  0
  147.6793  169.0185  132.5383 F   0  0  0  0  0  0  0  0  0  0  0  0
  145.5811  169.9732  132.5103 C   0  0  0  0  0  0  0  0  0  0  0  0
  146.0031  171.0966  131.8169 F   0  0  0  0  0  0  0  0  0  0  0  0
  144.5017  170.3740  133.2772 F   0  0  0  0  0  0  0  0  0  0  0  0
  145.2325  169.0116  131.6160 F   0  0  0  0  0  0  0  0  0  0  0  0
  2  1  1  6
  2  3  1  0
  3  4  1  0
  4  5  1  6
  5  6  2  0
  6  7  1  0
  7  8  2  0
  8  9  1  0
  9 10  2  0
  8 11  1  0
 11 12  1  0
 11 13  2  0
 11 14  2  0
  4 15  1  0
 15 16  2  0
 16 17  1  0
 17 18  1  0
 18 19  1  0
 19 20  2  0
 19 21  1  0
 21 22  2  0
 22 23  1  0
 23 24  1  0
 25 24  1  1
 25 26  1  0
 26 27  1  1
 27 28  1  0
 28 29  1  0
 29 30  1  1
 29 31  1  0
 31 32  1  0
 31 33  1  0
 31 34  1  0
 34 35  1  0
 34 36  1  0
 34 37  1  0
 26  2  1  0
 29  2  1  0
 10  5  1  0
 25 15  1  0
 22 16  1  0
M  END
$$$$
