
     RDKit          3D

 37 41  0  0  0  0  0  0  0  0999 V2000
  130.1292  167.3179  144.6752 C   0  0  0  0  0  0  0  0  0  0  0  0
  130.8455  168.0628  145.7907 C   0  0  2  0  0  0  0  0  0  0  0  0
  131.6298  167.0580  146.5348 C   0  0  0  0  0  0  0  0  0  0  0  0
  130.9462  166.7125  147.8419 C   0  0  2  0  0  0  0  0  0  0  0  0
  131.7966  165.9832  148.7599 C   0  0  0  0  0  0  0  0  0  0  0  0
  131.9925  166.4519  150.0435 C   0  0  0  0  0  0  0  0  0  0  0  0
  132.7767  165.7698  150.9505 C   0  0  0  0  0  0  0  0  0  0  0  0
  133.4015  164.5847  150.6115 C   0  0  0  0  0  0  0  0  0  0  0  0
  133.2053  164.1177  149.3299 C   0  0  0  0  0  0  0  0  0  0  0  0
  132.4154  164.8036  148.4147 C   0  0  0  0  0  0  0  0  0  0  0  0
  134.3977  163.7246  151.7740 S   0  0  0  0  0  6  0  0  0  0  0  0
  133.4231  162.4442  152.5078 C   0  0  0  0  0  0  0  0  0  0  0  0
  134.9436  164.6799  152.7804 O   0  0  0  0  0  0  0  0  0  0  0  0
  135.5679  163.1337  151.0170 O   0  0  0  0  0  0  0  0  0  0  0  0
  129.5232  166.5754  147.7477 C   0  0  0  0  0  0  0  0  0  0  0  0
  128.8383  165.5431  148.0820 C   0  0  0  0  0  0  0  0  0  0  0  0
  129.4296  164.3438  148.5847 C   0  0  0  0  0  0  0  0  0  0  0  0
  128.7677  163.9239  149.9008 C   0  0  0  0  0  0  0  0  0  0  0  0
  127.3266  163.6838  149.4965 C   0  0  0  0  0  0  0  0  0  0  0  0
  126.7781  162.6390  149.8164 O   0  0  0  0  0  0  0  0  0  0  0  0
  126.6545  164.7486  148.7235 C   0  0  0  0  0  0  0  0  0  0  0  0
  127.3589  165.6245  148.0622 C   0  0  0  0  0  0  0  0  0  0  0  0
  126.6811  166.7760  147.3760 C   0  0  0  0  0  0  0  0  0  0  0  0
  127.5798  168.0265  147.7139 C   0  0  0  0  0  0  0  0  0  0  0  0
  128.8287  167.7331  147.0225 C   0  0  1  0  0  0  0  0  0  0  0  0
  129.8401  168.7397  146.7493 C   0  0  2  0  0  0  0  0  0  0  0  0
  129.3799  169.8879  145.8564 C   0  0  0  0  0  0  0  0  0  0  0  0
  130.7249  170.4773  145.4894 C   0  0  0  0  0  0  0  0  0  0  0  0
  131.5354  169.2123  145.1743 C   0  0  2  0  0  0  0  0  0  0  0  0
  131.5216  169.1422  143.7563 O   0  0  0  0  0  0  0  0  0  0  0  0
  132.9833  169.3983  145.5309 C   0  0  0  0  0  0  0  0  0  0  0  0
  133.2480  169.5117  146.8552 F   0  0  0  0  0  0  0  0  0  0  0  0
  133.6786  168.3526  144.9153 F   0  0  0  0  0  0  0  0  0  0  0  0
  133.4655  170.6436  144.7746 C   0  0  0  0  0  0  0  0  0  0  0  0
  133.8985  170.2124  143.5308 F   0  0  0  0  0  0  0  0  0  0  0  0
  134.5744  171.1752  145.4082 F   0  0  0  0  0  0  0  0  0  0  0  0
  132.4916  171.5750  144.6008 F   0  0  0  0  0  0  0  0  0  0  0  0
  2  1  1  6
  2  3  1  0
  3  4  1  0
  4  5  1  6
  5  6  2  0
  6  7  1  0
  7  8  2  0
  8  9  1  0
  9 10  2  0
  8 11  1  0
 11 12  1  0
 11 13  2  0
 11 14  2  0
  4 15  1  0
 15 16  2  0
 16 17  1  0
 17 18  1  0
 18 19  1  0
 19 20  2  0
 19 21  1  0
 21 22  2  0
 22 23  1  0
 23 24  1  0
 25 24  1  1
 25 26  1  0
 26 27  1  6
 27 28  1  0
 28 29  1  0
 29 30  1  6
 29 31  1  0
 31 32  1  0
 31 33  1  0
 31 34  1  0
 34 35  1  0
 34 36  1  0
 34 37  1  0
 26  2  1  0
 29  2  1  0
 10  5  1  0
 25 15  1  0
 22 16  1  0
M  END
$$$$
