
     RDKit          3D

 37 41  0  0  0  0  0  0  0  0999 V2000
  201.3872  133.4934  132.8159 C   0  0  0  0  0  0  0  0  0  0  0  0
  201.3470  134.6896  133.7539 C   0  0  2  0  0  0  0  0  0  0  0  0
  201.1120  135.8793  132.9126 C   0  0  0  0  0  0  0  0  0  0  0  0
  202.3963  136.6615  132.7284 C   0  0  2  0  0  0  0  0  0  0  0  0
  202.1881  137.9892  132.1884 C   0  0  0  0  0  0  0  0  0  0  0  0
  202.5910  138.2843  130.9014 C   0  0  0  0  0  0  0  0  0  0  0  0
  202.3867  139.5312  130.3478 C   0  0  0  0  0  0  0  0  0  0  0  0
  201.7682  140.5409  131.0603 C   0  0  0  0  0  0  0  0  0  0  0  0
  201.3664  140.2452  132.3450 C   0  0  0  0  0  0  0  0  0  0  0  0
  201.5714  138.9895  132.9044 C   0  0  0  0  0  0  0  0  0  0  0  0
  201.5132  142.1246  130.3459 S   0  0  0  0  0  6  0  0  0  0  0  0
  200.6833  143.1452  131.5279 C   0  0  0  0  0  0  0  0  0  0  0  0
  200.7543  141.9897  129.0694 O   0  0  0  0  0  0  0  0  0  0  0  0
  202.8754  142.6957  130.0144 O   0  0  0  0  0  0  0  0  0  0  0  0
  203.5562  135.8509  132.5043 C   0  0  0  0  0  0  0  0  0  0  0  0
  204.3490  135.9254  131.4981 C   0  0  0  0  0  0  0  0  0  0  0  0
  204.1560  136.8412  130.4189 C   0  0  0  0  0  0  0  0  0  0  0  0
  205.4294  137.6537  130.1638 C   0  0  0  0  0  0  0  0  0  0  0  0
  206.4435  136.5905  129.7912 C   0  0  0  0  0  0  0  0  0  0  0  0
  207.1136  136.7271  128.7777 O   0  0  0  0  0  0  0  0  0  0  0  0
  206.5661  135.4269  130.6934 C   0  0  0  0  0  0  0  0  0  0  0  0
  205.5887  135.1137  131.4978 C   0  0  0  0  0  0  0  0  0  0  0  0
  205.7591  134.0062  132.4982 C   0  0  0  0  0  0  0  0  0  0  0  0
  205.1344  134.5725  133.8303 C   0  0  0  0  0  0  0  0  0  0  0  0
  203.7199  134.7011  133.5041 C   0  0  1  0  0  0  0  0  0  0  0  0
  202.6839  134.8543  134.5111 C   0  0  2  0  0  0  0  0  0  0  0  0
  202.5606  133.6899  135.4891 C   0  0  0  0  0  0  0  0  0  0  0  0
  201.2065  134.0051  136.0878 C   0  0  0  0  0  0  0  0  0  0  0  0
  200.3962  134.3643  134.8345 C   0  0  2  0  0  0  0  0  0  0  0  0
  199.6580  133.1842  134.5551 O   0  0  0  0  0  0  0  0  0  0  0  0
  199.3528  135.3996  135.1469 C   0  0  0  0  0  0  0  0  0  0  0  0
  199.6213  136.6512  134.7019 F   0  0  0  0  0  0  0  0  0  0  0  0
  198.1390  134.8922  134.6721 F   0  0  0  0  0  0  0  0  0  0  0  0
  199.1718  135.3948  136.6709 C   0  0  0  0  0  0  0  0  0  0  0  0
  198.4725  134.2406  136.9861 F   0  0  0  0  0  0  0  0  0  0  0  0
  198.3644  136.4526  137.0491 F   0  0  0  0  0  0  0  0  0  0  0  0
  200.3488  135.3934  137.3498 F   0  0  0  0  0  0  0  0  0  0  0  0
  2  1  1  6
  2  3  1  0
  3  4  1  0
  4  5  1  6
  5  6  2  0
  6  7  1  0
  7  8  2  0
  8  9  1  0
  9 10  2  0
  8 11  1  0
 11 12  1  0
 11 13  2  0
 11 14  2  0
  4 15  1  0
 15 16  2  0
 16 17  1  0
 17 18  1  0
 18 19  1  0
 19 20  2  0
 19 21  1  0
 21 22  2  0
 22 23  1  0
 23 24  1  0
 25 24  1  1
 25 26  1  0
 26 27  1  1
 27 28  1  0
 28 29  1  0
 29 30  1  6
 29 31  1  0
 31 32  1  0
 31 33  1  0
 31 34  1  0
 34 35  1  0
 34 36  1  0
 34 37  1  0
 26  2  1  0
 29  2  1  0
 10  5  1  0
 25 15  1  0
 22 16  1  0
M  END
$$$$
