
     RDKit          3D

 37 41  0  0  0  0  0  0  0  0999 V2000
  123.2631  156.4095  146.4538 C   0  0  0  0  0  0  0  0  0  0  0  0
  124.5232  156.8413  147.1873 C   0  0  2  0  0  0  0  0  0  0  0  0
  124.3551  158.2712  147.5117 C   0  0  0  0  0  0  0  0  0  0  0  0
  125.1739  159.1295  146.5693 C   0  0  2  0  0  0  0  0  0  0  0  0
  125.3104  160.5013  147.0133 C   0  0  0  0  0  0  0  0  0  0  0  0
  124.1894  161.2398  147.3352 C   0  0  0  0  0  0  0  0  0  0  0  0
  124.2850  162.5407  147.7838 C   0  0  0  0  0  0  0  0  0  0  0  0
  125.5108  163.1619  147.9305 C   0  0  0  0  0  0  0  0  0  0  0  0
  126.6291  162.4237  147.6088 C   0  0  0  0  0  0  0  0  0  0  0  0
  126.5348  161.1128  147.1566 C   0  0  0  0  0  0  0  0  0  0  0  0
  125.6209  164.8185  148.5023 S   0  0  0  0  0  6  0  0  0  0  0  0
  125.8527  164.7916  150.2554 C   0  0  0  0  0  0  0  0  0  0  0  0
  124.4043  165.5784  148.0949 O   0  0  0  0  0  0  0  0  0  0  0  0
  126.8123  165.4546  147.8187 O   0  0  0  0  0  0  0  0  0  0  0  0
  125.1426  158.7029  145.2019 C   0  0  0  0  0  0  0  0  0  0  0  0
  124.7816  159.4124  144.1956 C   0  0  0  0  0  0  0  0  0  0  0  0
  124.3224  160.7598  144.3154 C   0  0  0  0  0  0  0  0  0  0  0  0
  125.0975  161.6824  143.3696 C   0  0  0  0  0  0  0  0  0  0  0  0
  124.7674  161.1223  142.0003 C   0  0  0  0  0  0  0  0  0  0  0  0
  124.3751  161.8754  141.1208 O   0  0  0  0  0  0  0  0  0  0  0  0
  124.9428  159.6684  141.8039 C   0  0  0  0  0  0  0  0  0  0  0  0
  124.9541  158.8637  142.8300 C   0  0  0  0  0  0  0  0  0  0  0  0
  125.2520  157.4036  142.6415 C   0  0  0  0  0  0  0  0  0  0  0  0
  126.2413  157.0437  143.8151 C   0  0  0  0  0  0  0  0  0  0  0  0
  125.4166  157.2080  145.0054 C   0  0  1  0  0  0  0  0  0  0  0  0
  125.7772  156.6613  146.3023 C   0  0  2  0  0  0  0  0  0  0  0  0
  125.8978  155.1412  146.3484 C   0  0  0  0  0  0  0  0  0  0  0  0
  125.8850  154.9321  147.8476 C   0  0  0  0  0  0  0  0  0  0  0  0
  124.7483  155.8707  148.2757 C   0  0  2  0  0  0  0  0  0  0  0  0
  123.6378  155.0038  148.4524 O   0  0  0  0  0  0  0  0  0  0  0  0
  125.0065  156.4400  149.6422 C   0  0  0  0  0  0  0  0  0  0  0  0
  126.0633  157.2836  149.7325 F   0  0  0  0  0  0  0  0  0  0  0  0
  123.8029  157.0137  150.0644 F   0  0  0  0  0  0  0  0  0  0  0  0
  125.1858  155.2455  150.5889 C   0  0  0  0  0  0  0  0  0  0  0  0
  125.5314  155.7652  151.8262 F   0  0  0  0  0  0  0  0  0  0  0  0
  126.2613  154.4793  150.1763 F   0  0  0  0  0  0  0  0  0  0  0  0
  124.0598  154.4976  150.7267 F   0  0  0  0  0  0  0  0  0  0  0  0
  2  1  1  6
  2  3  1  0
  3  4  1  0
  4  5  1  6
  5  6  2  0
  6  7  1  0
  7  8  2  0
  8  9  1  0
  9 10  2  0
  8 11  1  0
 11 12  1  0
 11 13  2  0
 11 14  2  0
  4 15  1  0
 15 16  2  0
 16 17  1  0
 17 18  1  0
 18 19  1  0
 19 20  2  0
 19 21  1  0
 21 22  2  0
 22 23  1  0
 23 24  1  0
 25 24  1  6
 25 26  1  0
 26 27  1  6
 27 28  1  0
 28 29  1  0
 29 30  1  1
 29 31  1  0
 31 32  1  0
 31 33  1  0
 31 34  1  0
 34 35  1  0
 34 36  1  0
 34 37  1  0
 26  2  1  0
 29  2  1  0
 10  5  1  0
 25 15  1  0
 22 16  1  0
M  END
$$$$
