
     RDKit          3D

 37 41  0  0  0  0  0  0  0  0999 V2000
  201.1058  138.3563  129.5101 C   0  0  0  0  0  0  0  0  0  0  0  0
  201.4713  138.8435  130.9035 C   0  0  2  0  0  0  0  0  0  0  0  0
  202.7028  138.1290  131.2921 C   0  0  0  0  0  0  0  0  0  0  0  0
  202.3857  137.0195  132.2737 C   0  0  2  0  0  0  0  0  0  0  0  0
  203.5580  136.4851  132.9354 C   0  0  0  0  0  0  0  0  0  0  0  0
  204.6372  136.0536  132.1906 C   0  0  0  0  0  0  0  0  0  0  0  0
  205.7784  135.5614  132.7893 C   0  0  0  0  0  0  0  0  0  0  0  0
  205.8900  135.4792  134.1642 C   0  0  0  0  0  0  0  0  0  0  0  0
  204.8120  135.9103  134.9067 C   0  0  0  0  0  0  0  0  0  0  0  0
  203.6614  136.4065  134.3053 C   0  0  0  0  0  0  0  0  0  0  0  0
  207.3474  134.8510  134.9158 S   0  0  0  0  0  6  0  0  0  0  0  0
  208.7204  135.8272  134.3780 C   0  0  0  0  0  0  0  0  0  0  0  0
  207.5058  133.4053  134.5869 O   0  0  0  0  0  0  0  0  0  0  0  0
  207.1686  134.9660  136.4147 O   0  0  0  0  0  0  0  0  0  0  0  0
  201.2007  136.2760  131.9642 C   0  0  0  0  0  0  0  0  0  0  0  0
  201.1270  135.0067  131.7911 C   0  0  0  0  0  0  0  0  0  0  0  0
  202.2623  134.1425  131.8608 C   0  0  0  0  0  0  0  0  0  0  0  0
  202.0005  132.9810  132.8247 C   0  0  0  0  0  0  0  0  0  0  0  0
  200.8221  132.2697  132.1897 C   0  0  0  0  0  0  0  0  0  0  0  0
  200.8722  131.0607  132.0149 O   0  0  0  0  0  0  0  0  0  0  0  0
  199.6572  133.0959  131.8111 C   0  0  0  0  0  0  0  0  0  0  0  0
  199.7945  134.3796  131.6270 C   0  0  0  0  0  0  0  0  0  0  0  0
  198.5906  135.2374  131.3606 C   0  0  0  0  0  0  0  0  0  0  0  0
  198.8050  136.5155  132.2584 C   0  0  0  0  0  0  0  0  0  0  0  0
  199.9759  137.1462  131.6624 C   0  0  1  0  0  0  0  0  0  0  0  0
  200.3524  138.5254  131.9207 C   0  0  2  0  0  0  0  0  0  0  0  0
  199.3220  139.5647  131.4899 C   0  0  0  0  0  0  0  0  0  0  0  0
  200.1817  140.8095  131.5418 C   0  0  0  0  0  0  0  0  0  0  0  0
  201.4685  140.3186  130.8640 C   0  0  2  0  0  0  0  0  0  0  0  0
  201.3664  140.8143  129.5376 O   0  0  0  0  0  0  0  0  0  0  0  0
  202.6747  141.0092  131.4354 C   0  0  0  0  0  0  0  0  0  0  0  0
  202.8597  140.8521  132.7687 F   0  0  0  0  0  0  0  0  0  0  0  0
  203.7684  140.5892  130.6717 F   0  0  0  0  0  0  0  0  0  0  0  0
  202.5389  142.4960  131.0800 C   0  0  0  0  0  0  0  0  0  0  0  0
  203.6398  143.1385  131.6240 F   0  0  0  0  0  0  0  0  0  0  0  0
  201.4287  143.0281  131.7110 F   0  0  0  0  0  0  0  0  0  0  0  0
  202.5143  142.7264  129.7411 F   0  0  0  0  0  0  0  0  0  0  0  0
  2  1  1  6
  2  3  1  0
  3  4  1  0
  4  5  1  6
  5  6  2  0
  6  7  1  0
  7  8  2  0
  8  9  1  0
  9 10  2  0
  8 11  1  0
 11 12  1  0
 11 13  2  0
 11 14  2  0
  4 15  1  0
 15 16  2  0
 16 17  1  0
 17 18  1  0
 18 19  1  0
 19 20  2  0
 19 21  1  0
 21 22  2  0
 22 23  1  0
 23 24  1  0
 25 24  1  1
 25 26  1  0
 26 27  1  6
 27 28  1  0
 28 29  1  0
 29 30  1  6
 29 31  1  0
 31 32  1  0
 31 33  1  0
 31 34  1  0
 34 35  1  0
 34 36  1  0
 34 37  1  0
 26  2  1  0
 29  2  1  0
 10  5  1  0
 25 15  1  0
 22 16  1  0
M  END
$$$$
