
     RDKit          3D

 37 41  0  0  0  0  0  0  0  0999 V2000
  128.8596  145.7533  137.1249 C   0  0  0  0  0  0  0  0  0  0  0  0
  128.5415  145.4466  135.6698 C   0  0  2  0  0  0  0  0  0  0  0  0
  129.3421  146.3815  134.8554 C   0  0  0  0  0  0  0  0  0  0  0  0
  128.4713  147.5002  134.3212 C   0  0  2  0  0  0  0  0  0  0  0  0
  129.1052  148.2704  133.2711 C   0  0  0  0  0  0  0  0  0  0  0  0
  130.4788  148.4052  133.2439 C   0  0  0  0  0  0  0  0  0  0  0  0
  131.1163  149.1117  132.2453 C   0  0  0  0  0  0  0  0  0  0  0  0
  130.4047  149.7163  131.2265 C   0  0  0  0  0  0  0  0  0  0  0  0
  129.0336  149.5811  131.2547 C   0  0  0  0  0  0  0  0  0  0  0  0
  128.3895  148.8697  132.2601 C   0  0  0  0  0  0  0  0  0  0  0  0
  131.2265  150.6133  129.9602 S   0  0  0  0  0  6  0  0  0  0  0  0
  131.7186  149.4767  128.6978 C   0  0  0  0  0  0  0  0  0  0  0  0
  132.3773  151.3666  130.5361 O   0  0  0  0  0  0  0  0  0  0  0  0
  130.2425  151.6241  129.4107 O   0  0  0  0  0  0  0  0  0  0  0  0
  127.5219  148.0130  135.2638 C   0  0  0  0  0  0  0  0  0  0  0  0
  127.4124  149.2350  135.6395 C   0  0  0  0  0  0  0  0  0  0  0  0
  128.2710  150.2755  135.1698 C   0  0  0  0  0  0  0  0  0  0  0  0
  127.4514  151.4529  134.6326 C   0  0  0  0  0  0  0  0  0  0  0  0
  126.6710  151.9088  135.8494 C   0  0  0  0  0  0  0  0  0  0  0  0
  126.6756  153.0916  136.1587 O   0  0  0  0  0  0  0  0  0  0  0  0
  125.9345  150.8757  136.6067 C   0  0  0  0  0  0  0  0  0  0  0  0
  126.2759  149.6210  136.5085 C   0  0  0  0  0  0  0  0  0  0  0  0
  125.4539  148.5596  137.1822 C   0  0  0  0  0  0  0  0  0  0  0  0
  125.3300  147.4105  136.1099 C   0  0  0  0  0  0  0  0  0  0  0  0
  126.7005  146.9331  135.9763 C   0  0  1  0  0  0  0  0  0  0  0  0
  127.0413  145.6593  135.3665 C   0  0  2  0  0  0  0  0  0  0  0  0
  126.4688  144.4344  136.0733 C   0  0  0  0  0  0  0  0  0  0  0  0
  127.3151  143.3548  135.4333 C   0  0  0  0  0  0  0  0  0  0  0  0
  128.7105  143.9925  135.4839 C   0  0  2  0  0  0  0  0  0  0  0  0
  129.3249  143.3810  136.6083 O   0  0  0  0  0  0  0  0  0  0  0  0
  129.5441  143.5564  134.3121 C   0  0  0  0  0  0  0  0  0  0  0  0
  129.2021  144.0996  133.1186 F   0  0  0  0  0  0  0  0  0  0  0  0
  130.8764  143.7928  134.6661 F   0  0  0  0  0  0  0  0  0  0  0  0
  129.4545  142.0254  134.2549 C   0  0  0  0  0  0  0  0  0  0  0  0
  130.0654  141.5467  135.4031 F   0  0  0  0  0  0  0  0  0  0  0  0
  130.2030  141.5527  133.1919 F   0  0  0  0  0  0  0  0  0  0  0  0
  128.1768  141.5650  134.2138 F   0  0  0  0  0  0  0  0  0  0  0  0
  2  1  1  1
  2  3  1  0
  3  4  1  0
  4  5  1  1
  5  6  2  0
  6  7  1  0
  7  8  2  0
  8  9  1  0
  9 10  2  0
  8 11  1  0
 11 12  1  0
 11 13  2  0
 11 14  2  0
  4 15  1  0
 15 16  2  0
 16 17  1  0
 17 18  1  0
 18 19  1  0
 19 20  2  0
 19 21  1  0
 21 22  2  0
 22 23  1  0
 23 24  1  0
 25 24  1  6
 25 26  1  0
 26 27  1  1
 27 28  1  0
 28 29  1  0
 29 30  1  1
 29 31  1  0
 31 32  1  0
 31 33  1  0
 31 34  1  0
 34 35  1  0
 34 36  1  0
 34 37  1  0
 26  2  1  0
 29  2  1  0
 10  5  1  0
 25 15  1  0
 22 16  1  0
M  END
$$$$
