
     RDKit          3D

 37 41  0  0  0  0  0  0  0  0999 V2000
  157.8923  159.4734  138.0253 C   0  0  0  0  0  0  0  0  0  0  0  0
  156.8159  160.5462  138.0779 C   0  0  2  0  0  0  0  0  0  0  0  0
  156.6802  161.0771  136.7075 C   0  0  0  0  0  0  0  0  0  0  0  0
  157.3588  162.4266  136.5911 C   0  0  2  0  0  0  0  0  0  0  0  0
  157.0043  163.1460  135.3851 C   0  0  0  0  0  0  0  0  0  0  0  0
  157.2741  162.5980  134.1471 C   0  0  0  0  0  0  0  0  0  0  0  0
  156.9285  163.2454  132.9791 C   0  0  0  0  0  0  0  0  0  0  0  0
  156.2956  164.4737  132.9987 C   0  0  0  0  0  0  0  0  0  0  0  0
  156.0267  165.0198  134.2350 C   0  0  0  0  0  0  0  0  0  0  0  0
  156.3741  164.3690  135.4130 C   0  0  0  0  0  0  0  0  0  0  0  0
  155.8601  165.2889  131.5056 S   0  0  0  0  0  6  0  0  0  0  0  0
  156.3745  164.2809  130.1465 C   0  0  0  0  0  0  0  0  0  0  0  0
  156.4680  166.6502  131.4742 O   0  0  0  0  0  0  0  0  0  0  0  0
  154.3555  165.4557  131.5037 O   0  0  0  0  0  0  0  0  0  0  0  0
  158.6198  162.5152  137.2655 C   0  0  0  0  0  0  0  0  0  0  0  0
  159.7415  162.8403  136.7339 C   0  0  0  0  0  0  0  0  0  0  0  0
  159.8887  163.1409  135.3452 C   0  0  0  0  0  0  0  0  0  0  0  0
  160.5903  164.4892  135.1543 C   0  0  0  0  0  0  0  0  0  0  0  0
  161.9425  164.2648  135.8016 C   0  0  0  0  0  0  0  0  0  0  0  0
  162.9590  164.5558  135.1878 O   0  0  0  0  0  0  0  0  0  0  0  0
  161.9537  163.6959  137.1651 C   0  0  0  0  0  0  0  0  0  0  0  0
  160.9229  163.0308  137.6077 C   0  0  0  0  0  0  0  0  0  0  0  0
  160.8852  162.5565  139.0324 C   0  0  0  0  0  0  0  0  0  0  0  0
  159.4238  162.8857  139.5238 C   0  0  0  0  0  0  0  0  0  0  0  0
  158.5948  162.0052  138.7104 C   0  0  1  0  0  0  0  0  0  0  0  0
  157.2133  161.6934  139.0340 C   0  0  2  0  0  0  0  0  0  0  0  0
  157.0098  160.9852  140.3699 C   0  0  0  0  0  0  0  0  0  0  0  0
  155.5898  160.4953  140.1826 C   0  0  0  0  0  0  0  0  0  0  0  0
  155.6421  159.9535  138.7473 C   0  0  2  0  0  0  0  0  0  0  0  0
  155.7793  158.5506  138.9167 O   0  0  0  0  0  0  0  0  0  0  0  0
  154.3172  160.1248  138.0590 C   0  0  0  0  0  0  0  0  0  0  0  0
  153.2365  160.1646  138.8757 F   0  0  0  0  0  0  0  0  0  0  0  0
  154.4384  161.2565  137.2462 F   0  0  0  0  0  0  0  0  0  0  0  0
  154.1927  158.9725  137.0531 C   0  0  0  0  0  0  0  0  0  0  0  0
  153.0229  159.1882  136.3419 F   0  0  0  0  0  0  0  0  0  0  0  0
  154.0204  157.7780  137.7294 F   0  0  0  0  0  0  0  0  0  0  0  0
  155.2315  158.9097  136.1794 F   0  0  0  0  0  0  0  0  0  0  0  0
  2  1  1  6
  2  3  1  0
  3  4  1  0
  4  5  1  6
  5  6  2  0
  6  7  1  0
  7  8  2  0
  8  9  1  0
  9 10  2  0
  8 11  1  0
 11 12  1  0
 11 13  2  0
 11 14  2  0
  4 15  1  0
 15 16  2  0
 16 17  1  0
 17 18  1  0
 18 19  1  0
 19 20  2  0
 19 21  1  0
 21 22  2  0
 22 23  1  0
 23 24  1  0
 25 24  1  1
 25 26  1  0
 26 27  1  1
 27 28  1  0
 28 29  1  0
 29 30  1  1
 29 31  1  0
 31 32  1  0
 31 33  1  0
 31 34  1  0
 34 35  1  0
 34 36  1  0
 34 37  1  0
 26  2  1  0
 29  2  1  0
 10  5  1  0
 25 15  1  0
 22 16  1  0
M  END
$$$$
