
     RDKit          3D

 37 41  0  0  0  0  0  0  0  0999 V2000
  148.0887  168.2396  129.0881 C   0  0  0  0  0  0  0  0  0  0  0  0
  147.5230  167.9684  130.4733 C   0  0  2  0  0  0  0  0  0  0  0  0
  146.1606  168.5358  130.4926 C   0  0  0  0  0  0  0  0  0  0  0  0
  146.1414  169.8451  131.2545 C   0  0  2  0  0  0  0  0  0  0  0  0
  144.8060  170.2983  131.5848 C   0  0  0  0  0  0  0  0  0  0  0  0
  144.4504  170.5029  132.9028 C   0  0  0  0  0  0  0  0  0  0  0  0
  143.1950  170.9567  133.2508 C   0  0  0  0  0  0  0  0  0  0  0  0
  142.2373  171.2266  132.2918 C   0  0  0  0  0  0  0  0  0  0  0  0
  142.5935  171.0219  130.9764 C   0  0  0  0  0  0  0  0  0  0  0  0
  143.8578  170.5648  130.6238 C   0  0  0  0  0  0  0  0  0  0  0  0
  140.6423  171.8038  132.7461 S   0  0  0  0  0  6  0  0  0  0  0  0
  140.1059  172.9772  131.5365 C   0  0  0  0  0  0  0  0  0  0  0  0
  140.6819  172.3748  134.1230 O   0  0  0  0  0  0  0  0  0  0  0  0
  139.7177  170.6055  132.7702 O   0  0  0  0  0  0  0  0  0  0  0  0
  147.2625  170.6983  130.9938 C   0  0  0  0  0  0  0  0  0  0  0  0
  147.2108  171.9081  130.5694 C   0  0  0  0  0  0  0  0  0  0  0  0
  145.9854  172.5766  130.2656 C   0  0  0  0  0  0  0  0  0  0  0  0
  145.9094  173.9241  130.9902 C   0  0  0  0  0  0  0  0  0  0  0  0
  147.0912  174.6842  130.4217 C   0  0  0  0  0  0  0  0  0  0  0  0
  146.9267  175.8155  129.9881 O   0  0  0  0  0  0  0  0  0  0  0  0
  148.4006  173.9998  130.4249 C   0  0  0  0  0  0  0  0  0  0  0  0
  148.4617  172.6992  130.4979 C   0  0  0  0  0  0  0  0  0  0  0  0
  149.7911  172.0113  130.6222 C   0  0  0  0  0  0  0  0  0  0  0  0
  149.5666  170.9055  131.7232 C   0  0  0  0  0  0  0  0  0  0  0  0
  148.6208  169.9951  131.0901 C   0  0  1  0  0  0  0  0  0  0  0  0
  148.3751  168.6460  131.5700 C   0  0  2  0  0  0  0  0  0  0  0  0
  149.5901  167.7237  131.5459 C   0  0  0  0  0  0  0  0  0  0  0  0
  148.8976  166.3889  131.7187 C   0  0  0  0  0  0  0  0  0  0  0  0
  147.7159  166.5318  130.7494 C   0  0  2  0  0  0  0  0  0  0  0  0
  148.1340  165.8203  129.5940 O   0  0  0  0  0  0  0  0  0  0  0  0
  146.5169  165.7753  131.2476 C   0  0  0  0  0  0  0  0  0  0  0  0
  146.0843  166.1176  132.4854 F   0  0  0  0  0  0  0  0  0  0  0  0
  145.5324  165.9034  130.2624 F   0  0  0  0  0  0  0  0  0  0  0  0
  146.8844  164.2862  131.1958 C   0  0  0  0  0  0  0  0  0  0  0  0
  145.7863  163.5874  131.6717 F   0  0  0  0  0  0  0  0  0  0  0  0
  147.9191  164.0291  132.0773 F   0  0  0  0  0  0  0  0  0  0  0  0
  147.1723  163.8490  129.9420 F   0  0  0  0  0  0  0  0  0  0  0  0
  2  1  1  6
  2  3  1  0
  3  4  1  0
  4  5  1  6
  5  6  2  0
  6  7  1  0
  7  8  2  0
  8  9  1  0
  9 10  2  0
  8 11  1  0
 11 12  1  0
 11 13  2  0
 11 14  2  0
  4 15  1  0
 15 16  2  0
 16 17  1  0
 17 18  1  0
 18 19  1  0
 19 20  2  0
 19 21  1  0
 21 22  2  0
 22 23  1  0
 23 24  1  0
 25 24  1  1
 25 26  1  0
 26 27  1  6
 27 28  1  0
 28 29  1  0
 29 30  1  6
 29 31  1  0
 31 32  1  0
 31 33  1  0
 31 34  1  0
 34 35  1  0
 34 36  1  0
 34 37  1  0
 26  2  1  0
 29  2  1  0
 10  5  1  0
 25 15  1  0
 22 16  1  0
M  END
$$$$
