
     RDKit          3D

 52 54  0  0  0  0  0  0  0  0999 V2000
  107.7557  169.8496  160.7407 C   0  0  0  0  0  0  0  0  0  0  0  0
  107.8825  170.8279  159.6217 C   0  0  0  0  0  0  0  0  0  0  0  0
  107.0140  170.4953  158.4294 C   0  0  1  0  0  0  0  0  0  0  0  0
  105.7191  170.3039  158.9146 O   0  0  0  0  0  0  0  0  0  0  0  0
  104.7371  169.4912  158.4454 C   0  0  0  0  0  0  0  0  0  0  0  0
  103.5683  169.9549  158.4137 O   0  0  0  0  0  0  0  0  0  0  0  0
  104.9290  168.0838  157.9602 C   0  0  2  0  0  0  0  0  0  0  0  0
  103.6449  167.6710  157.2726 C   0  0  0  0  0  0  0  0  0  0  0  0
  105.1781  167.1402  159.0640 C   0  0  1  0  0  0  0  0  0  0  0  0
  103.9834  166.9248  159.7387 O   0  0  0  0  0  0  0  0  0  0  0  0
  103.9705  167.2984  161.0567 C   0  0  1  0  0  0  0  0  0  0  0  0
  102.6957  167.0784  161.7931 C   0  0  0  0  0  0  0  0  0  0  0  0
  102.9810  167.0873  163.3003 C   0  0  1  0  0  0  0  0  0  0  0  0
  103.7240  168.3692  163.5686 C   0  0  0  0  0  0  0  0  0  0  0  0
  101.7470  167.1190  163.9113 O   0  0  0  0  0  0  0  0  0  0  0  0
  101.7181  167.7256  165.1506 C   0  0  0  0  0  0  0  0  0  0  0  0
  103.7924  165.8692  163.6086 C   0  0  1  0  0  0  0  0  0  0  0  0
  102.9298  164.8403  164.0468 O   0  0  0  0  0  0  0  0  0  0  0  0
  104.4818  165.4323  162.3147 C   0  0  2  0  0  0  0  0  0  0  0  0
  105.6513  164.5392  162.6850 C   0  0  0  0  0  0  0  0  0  0  0  0
  104.9769  166.5503  161.6859 O   0  0  0  0  0  0  0  0  0  0  0  0
  106.0095  165.9428  158.8622 C   0  0  2  0  0  0  0  0  0  0  0  0
  107.4525  166.3140  159.1476 C   0  0  0  0  0  0  0  0  0  0  0  0
  105.8267  165.0184  157.7288 C   0  0  1  0  0  0  0  0  0  0  0  0
  104.5380  164.8130  157.3131 O   0  0  0  0  0  0  0  0  0  0  0  0
  104.2646  164.8552  155.9679 C   0  0  2  0  0  0  0  0  0  0  0  0
  104.2215  166.1126  155.3936 O   0  0  0  0  0  0  0  0  0  0  0  0
  103.3091  166.2396  154.3761 C   0  0  2  0  0  0  0  0  0  0  0  0
  103.2506  167.6413  153.8134 C   0  0  0  0  0  0  0  0  0  0  0  0
  101.9075  165.8980  154.8328 C   0  0  0  0  0  0  0  0  0  0  0  0
  101.8999  164.4348  155.0858 C   0  0  1  0  0  0  0  0  0  0  0  0
  103.1998  163.9236  155.5417 C   0  0  1  0  0  0  0  0  0  0  0  0
  103.6578  163.0027  154.5521 O   0  0  0  0  0  0  0  0  0  0  0  0
  100.7900  164.0300  155.9485 N   0  0  0  0  0  0  0  0  0  0  0  0
  100.5335  162.6178  155.6138 C   0  0  0  0  0  0  0  0  0  0  0  0
   99.6207  164.7874  155.5386 C   0  0  0  0  0  0  0  0  0  0  0  0
  106.8345  165.0190  156.6318 C   0  0  2  0  0  0  0  0  0  0  0  0
  106.8103  163.5799  156.0761 C   0  0  0  0  0  0  0  0  0  0  0  0
  108.1441  165.1321  157.1536 O   0  0  0  0  0  0  0  0  0  0  0  0
  106.7473  165.9095  155.4767 C   0  0  0  0  0  0  0  0  0  0  0  0
  108.0033  166.7675  155.2551 C   0  0  1  0  0  0  0  0  0  0  0  0
  108.9469  166.1493  154.2695 C   0  0  0  0  0  0  0  0  0  0  0  0
  107.6197  168.1421  154.7604 C   0  0  0  0  0  0  0  0  0  0  0  0
  108.2826  169.1923  155.5500 N   0  0  0  0  0  0  0  0  0  0  0  0
  109.6893  169.2501  155.3015 C   0  0  0  0  0  0  0  0  0  0  0  0
  107.7207  170.4870  155.2385 C   0  0  2  0  0  0  0  0  0  0  0  0
  108.3823  171.0411  153.9706 C   0  0  0  0  0  0  0  0  0  0  0  0
  108.0798  171.4178  156.3601 C   0  0  1  0  0  0  0  0  0  0  0  0
  108.3255  172.6897  155.8265 O   0  0  0  0  0  0  0  0  0  0  0  0
  106.9845  171.5899  157.3902 C   0  0  1  0  0  0  0  0  0  0  0  0
  105.6132  171.7076  156.7498 C   0  0  0  0  0  0  0  0  0  0  0  0
  107.2025  172.8009  158.0445 O   0  0  0  0  0  0  0  0  0  0  0  0
  1  2  1  0
  3  2  1  1
  3  4  1  0
  4  5  1  0
  5  6  2  0
  5  7  1  0
  7  8  1  1
  7  9  1  0
  9 10  1  6
 11 10  1  6
 11 12  1  0
 12 13  1  0
 13 14  1  6
 13 15  1  0
 15 16  1  0
 13 17  1  0
 17 18  1  6
 17 19  1  0
 19 20  1  1
 19 21  1  0
  9 22  1  0
 22 23  1  6
 22 24  1  0
 24 25  1  6
 26 25  1  1
 26 27  1  0
 27 28  1  0
 28 29  1  1
 28 30  1  0
 30 31  1  0
 31 32  1  0
 32 33  1  6
 31 34  1  1
 34 35  1  0
 34 36  1  0
 24 37  1  0
 37 38  1  6
 37 39  1  0
 37 40  1  0
 40 41  1  0
 41 42  1  6
 41 43  1  0
 43 44  1  0
 44 45  1  0
 44 46  1  0
 46 47  1  6
 46 48  1  0
 48 49  1  6
 48 50  1  0
 50 51  1  6
 50 52  1  0
 50  3  1  0
 21 11  1  0
 32 26  1  0
M  END
$$$$
