
     RDKit          3D

 52 54  0  0  0  0  0  0  0  0999 V2000
  118.1712  141.9391  155.5199 C   0  0  0  0  0  0  0  0  0  0  0  0
  117.5673  143.2998  155.6143 C   0  0  0  0  0  0  0  0  0  0  0  0
  117.2890  143.9303  154.2684 C   0  0  1  0  0  0  0  0  0  0  0  0
  118.3655  143.6059  153.4408 O   0  0  0  0  0  0  0  0  0  0  0  0
  118.9002  144.3112  152.4106 C   0  0  0  0  0  0  0  0  0  0  0  0
  119.2216  143.6711  151.3766 O   0  0  0  0  0  0  0  0  0  0  0  0
  119.1403  145.7928  152.4013 C   0  0  2  0  0  0  0  0  0  0  0  0
  119.4695  146.1814  150.9755 C   0  0  0  0  0  0  0  0  0  0  0  0
  120.2779  146.1809  153.2532 C   0  0  1  0  0  0  0  0  0  0  0  0
  121.4545  145.8151  152.6122 O   0  0  0  0  0  0  0  0  0  0  0  0
  121.9885  144.6124  152.9929 C   0  0  1  0  0  0  0  0  0  0  0  0
  121.5161  143.4142  152.2466 C   0  0  0  0  0  0  0  0  0  0  0  0
  122.5206  142.2722  152.4468 C   0  0  1  0  0  0  0  0  0  0  0  0
  122.6948  142.1369  153.9363 C   0  0  0  0  0  0  0  0  0  0  0  0
  121.9101  141.1475  151.9377 O   0  0  0  0  0  0  0  0  0  0  0  0
  122.3691  140.7350  150.7033 C   0  0  0  0  0  0  0  0  0  0  0  0
  123.7839  142.6606  151.7463 C   0  0  1  0  0  0  0  0  0  0  0  0
  123.7905  142.0854  150.4563 O   0  0  0  0  0  0  0  0  0  0  0  0
  123.7928  144.1851  151.6187 C   0  0  2  0  0  0  0  0  0  0  0  0
  125.2235  144.6267  151.3730 C   0  0  0  0  0  0  0  0  0  0  0  0
  123.3754  144.7246  152.8124 O   0  0  0  0  0  0  0  0  0  0  0  0
  120.3092  147.4912  153.9224 C   0  0  2  0  0  0  0  0  0  0  0  0
  119.6313  147.3504  155.2723 C   0  0  0  0  0  0  0  0  0  0  0  0
  120.0272  148.7581  153.2237 C   0  0  1  0  0  0  0  0  0  0  0  0
  120.4547  148.8450  151.9255 O   0  0  0  0  0  0  0  0  0  0  0  0
  121.6826  148.3235  151.5994 C   0  0  2  0  0  0  0  0  0  0  0  0
  122.7766  149.1258  151.8681 O   0  0  0  0  0  0  0  0  0  0  0  0
  123.8064  148.9990  150.9695 C   0  0  2  0  0  0  0  0  0  0  0  0
  124.9584  149.9324  151.2632 C   0  0  0  0  0  0  0  0  0  0  0  0
  123.3576  149.2975  149.5555 C   0  0  0  0  0  0  0  0  0  0  0  0
  122.4554  148.1848  149.1642 C   0  0  1  0  0  0  0  0  0  0  0  0
  121.7113  147.6220  150.2993 C   0  0  1  0  0  0  0  0  0  0  0  0
  122.1195  146.2609  150.4336 O   0  0  0  0  0  0  0  0  0  0  0  0
  121.5959  148.5426  148.0359 N   0  0  0  0  0  0  0  0  0  0  0  0
  122.4793  149.2315  147.0784 C   0  0  0  0  0  0  0  0  0  0  0  0
  120.6344  149.5208  148.5132 C   0  0  0  0  0  0  0  0  0  0  0  0
  118.7405  149.4575  153.4961 C   0  0  2  0  0  0  0  0  0  0  0  0
  119.0504  150.9516  153.2685 C   0  0  0  0  0  0  0  0  0  0  0  0
  118.4246  149.4087  154.8738 O   0  0  0  0  0  0  0  0  0  0  0  0
  117.5125  149.1729  152.7572 C   0  0  0  0  0  0  0  0  0  0  0  0
  116.3215  148.7918  153.6511 C   0  0  1  0  0  0  0  0  0  0  0  0
  115.4481  149.9675  153.9655 C   0  0  0  0  0  0  0  0  0  0  0  0
  115.4809  147.7304  152.9816 C   0  0  0  0  0  0  0  0  0  0  0  0
  115.2183  146.6084  153.8970 N   0  0  0  0  0  0  0  0  0  0  0  0
  114.3239  146.9687  154.9525 C   0  0  0  0  0  0  0  0  0  0  0  0
  114.6363  145.4976  153.1784 C   0  0  2  0  0  0  0  0  0  0  0  0
  113.1251  145.7162  153.0339 C   0  0  0  0  0  0  0  0  0  0  0  0
  114.8206  144.2681  154.0196 C   0  0  1  0  0  0  0  0  0  0  0  0
  113.6949  143.4480  153.8683 O   0  0  0  0  0  0  0  0  0  0  0  0
  116.0175  143.4291  153.6273 C   0  0  1  0  0  0  0  0  0  0  0  0
  116.1651  143.3159  152.1207 C   0  0  0  0  0  0  0  0  0  0  0  0
  115.7956  142.1315  154.0850 O   0  0  0  0  0  0  0  0  0  0  0  0
  1  2  1  0
  3  2  1  1
  3  4  1  0
  4  5  1  0
  5  6  2  0
  5  7  1  0
  7  8  1  6
  7  9  1  0
  9 10  1  6
 11 10  1  6
 11 12  1  0
 12 13  1  0
 13 14  1  1
 13 15  1  0
 15 16  1  0
 13 17  1  0
 17 18  1  6
 17 19  1  0
 19 20  1  1
 19 21  1  0
  9 22  1  0
 22 23  1  1
 22 24  1  0
 24 25  1  6
 26 25  1  6
 26 27  1  0
 27 28  1  0
 28 29  1  1
 28 30  1  0
 30 31  1  0
 31 32  1  0
 32 33  1  1
 31 34  1  6
 34 35  1  0
 34 36  1  0
 24 37  1  0
 37 38  1  6
 37 39  1  0
 37 40  1  0
 40 41  1  0
 41 42  1  6
 41 43  1  0
 43 44  1  0
 44 45  1  0
 44 46  1  0
 46 47  1  1
 46 48  1  0
 48 49  1  6
 48 50  1  0
 50 51  1  6
 50 52  1  0
 50  3  1  0
 21 11  1  0
 32 26  1  0
M  END
$$$$
