
     RDKit          3D

 52 54  0  0  0  0  0  0  0  0999 V2000
  165.3791  147.9709  129.9800 C   0  0  0  0  0  0  0  0  0  0  0  0
  166.6729  147.2290  129.9500 C   0  0  0  0  0  0  0  0  0  0  0  0
  167.8096  148.0240  129.3482 C   0  0  1  0  0  0  0  0  0  0  0  0
  167.3629  148.4936  128.1117 O   0  0  0  0  0  0  0  0  0  0  0  0
  168.0712  148.7398  126.9793 C   0  0  0  0  0  0  0  0  0  0  0  0
  167.7912  149.7847  126.3375 O   0  0  0  0  0  0  0  0  0  0  0  0
  169.1624  147.8690  126.4278 C   0  0  2  0  0  0  0  0  0  0  0  0
  169.8556  148.6600  125.3389 C   0  0  0  0  0  0  0  0  0  0  0  0
  168.6396  146.6293  125.8274 C   0  0  1  0  0  0  0  0  0  0  0  0
  168.0444  146.9439  124.6126 O   0  0  0  0  0  0  0  0  0  0  0  0
  166.7376  147.3496  124.6795 C   0  0  1  0  0  0  0  0  0  0  0  0
  166.1967  148.0362  123.4746 C   0  0  0  0  0  0  0  0  0  0  0  0
  164.6641  147.9879  123.5173 C   0  0  1  0  0  0  0  0  0  0  0  0
  164.2746  148.5399  124.8630 C   0  0  0  0  0  0  0  0  0  0  0  0
  164.2382  148.8342  122.5176 O   0  0  0  0  0  0  0  0  0  0  0  0
  163.2225  149.6995  122.8704 C   0  0  0  0  0  0  0  0  0  0  0  0
  164.2568  146.5603  123.3342 C   0  0  1  0  0  0  0  0  0  0  0  0
  163.9615  146.3372  121.9711 O   0  0  0  0  0  0  0  0  0  0  0  0
  165.4426  145.6844  123.7432 C   0  0  2  0  0  0  0  0  0  0  0  0
  164.9180  144.2903  124.0321 C   0  0  0  0  0  0  0  0  0  0  0  0
  165.9785  146.1910  124.9035 O   0  0  0  0  0  0  0  0  0  0  0  0
  169.4356  145.3915  125.8343 C   0  0  2  0  0  0  0  0  0  0  0  0
  169.1301  144.6385  127.1154 C   0  0  0  0  0  0  0  0  0  0  0  0
  170.8478  145.3412  125.4152 C   0  0  1  0  0  0  0  0  0  0  0  0
  171.2050  146.1644  124.3805 O   0  0  0  0  0  0  0  0  0  0  0  0
  171.2335  145.6492  123.1078 C   0  0  2  0  0  0  0  0  0  0  0  0
  172.0706  144.5667  122.9068 O   0  0  0  0  0  0  0  0  0  0  0  0
  172.6484  144.5208  121.6626 C   0  0  2  0  0  0  0  0  0  0  0  0
  173.5997  143.3574  121.5011 C   0  0  0  0  0  0  0  0  0  0  0  0
  173.4432  145.7739  121.3661 C   0  0  0  0  0  0  0  0  0  0  0  0
  172.4502  146.8677  121.2153 C   0  0  1  0  0  0  0  0  0  0  0  0
  171.2527  146.6750  122.0446 C   0  0  1  0  0  0  0  0  0  0  0  0
  170.1441  146.5459  121.1550 O   0  0  0  0  0  0  0  0  0  0  0  0
  173.0559  148.1889  121.3808 N   0  0  0  0  0  0  0  0  0  0  0  0
  174.5085  147.9666  121.2686 C   0  0  0  0  0  0  0  0  0  0  0  0
  172.7919  148.6222  122.7416 C   0  0  0  0  0  0  0  0  0  0  0  0
  171.9000  145.1684  126.4555 C   0  0  2  0  0  0  0  0  0  0  0  0
  173.0504  144.4379  125.7323 C   0  0  0  0  0  0  0  0  0  0  0  0
  171.4930  144.2269  127.4292 O   0  0  0  0  0  0  0  0  0  0  0  0
  172.5057  146.2937  127.1639 C   0  0  0  0  0  0  0  0  0  0  0  0
  172.4100  146.1908  128.6945 C   0  0  1  0  0  0  0  0  0  0  0  0
  173.6425  145.5942  129.3020 C   0  0  0  0  0  0  0  0  0  0  0  0
  172.1851  147.5563  129.2997 C   0  0  0  0  0  0  0  0  0  0  0  0
  171.0583  147.5363  130.2461 N   0  0  0  0  0  0  0  0  0  0  0  0
  171.3661  146.8113  131.4392 C   0  0  0  0  0  0  0  0  0  0  0  0
  170.6935  148.8829  130.6236 C   0  0  2  0  0  0  0  0  0  0  0  0
  171.6145  149.3663  131.7507 C   0  0  0  0  0  0  0  0  0  0  0  0
  169.3031  148.8339  131.1873 C   0  0  1  0  0  0  0  0  0  0  0  0
  169.2111  149.7589  132.2355 O   0  0  0  0  0  0  0  0  0  0  0  0
  168.2238  149.2044  130.1932 C   0  0  1  0  0  0  0  0  0  0  0  0
  168.6246  150.3880  129.3314 C   0  0  0  0  0  0  0  0  0  0  0  0
  167.1066  149.6216  130.9144 O   0  0  0  0  0  0  0  0  0  0  0  0
  1  2  1  0
  3  2  1  1
  3  4  1  0
  4  5  1  0
  5  6  2  0
  5  7  1  0
  7  8  1  6
  7  9  1  0
  9 10  1  6
 11 10  1  6
 11 12  1  0
 12 13  1  0
 13 14  1  1
 13 15  1  0
 15 16  1  0
 13 17  1  0
 17 18  1  6
 17 19  1  0
 19 20  1  1
 19 21  1  0
  9 22  1  0
 22 23  1  1
 22 24  1  0
 24 25  1  1
 26 25  1  1
 26 27  1  0
 27 28  1  0
 28 29  1  1
 28 30  1  0
 30 31  1  0
 31 32  1  0
 32 33  1  6
 31 34  1  1
 34 35  1  0
 34 36  1  0
 24 37  1  0
 37 38  1  6
 37 39  1  0
 37 40  1  0
 40 41  1  0
 41 42  1  1
 41 43  1  0
 43 44  1  0
 44 45  1  0
 44 46  1  0
 46 47  1  1
 46 48  1  0
 48 49  1  1
 48 50  1  0
 50 51  1  6
 50 52  1  0
 50  3  1  0
 21 11  1  0
 32 26  1  0
M  END
$$$$
