
     RDKit          3D

 52 54  0  0  0  0  0  0  0  0999 V2000
  189.8849  165.3151  117.3748 C   0  0  0  0  0  0  0  0  0  0  0  0
  189.9272  163.8590  117.0536 C   0  0  0  0  0  0  0  0  0  0  0  0
  191.1818  163.4397  116.3211 C   0  0  1  0  0  0  0  0  0  0  0  0
  191.4165  164.4037  115.3389 O   0  0  0  0  0  0  0  0  0  0  0  0
  191.9992  164.2641  114.1200 C   0  0  0  0  0  0  0  0  0  0  0  0
  192.8033  165.1606  113.7572 O   0  0  0  0  0  0  0  0  0  0  0  0
  191.7647  163.1280  113.1674 C   0  0  2  0  0  0  0  0  0  0  0  0
  192.8187  163.2297  112.0853 C   0  0  0  0  0  0  0  0  0  0  0  0
  190.4419  163.2019  112.5230 C   0  0  1  0  0  0  0  0  0  0  0  0
  190.4692  164.2154  111.5737 O   0  0  0  0  0  0  0  0  0  0  0  0
  189.6018  165.2536  111.7890 C   0  0  1  0  0  0  0  0  0  0  0  0
  189.9185  166.5330  111.0972 C   0  0  0  0  0  0  0  0  0  0  0  0
  188.6541  167.4002  111.0463 C   0  0  1  0  0  0  0  0  0  0  0  0
  188.1580  167.4840  112.4655 C   0  0  0  0  0  0  0  0  0  0  0  0
  189.0718  168.6405  110.6171 O   0  0  0  0  0  0  0  0  0  0  0  0
  189.6240  169.4466  111.5918 C   0  0  0  0  0  0  0  0  0  0  0  0
  187.6846  166.7232  110.1303 C   0  0  1  0  0  0  0  0  0  0  0  0
  187.8014  167.2851  108.8397 O   0  0  0  0  0  0  0  0  0  0  0  0
  188.0608  165.2415  110.0710 C   0  0  2  0  0  0  0  0  0  0  0  0
  186.8535  164.4709  109.5702 C   0  0  0  0  0  0  0  0  0  0  0  0
  188.3455  164.8131  111.3460 O   0  0  0  0  0  0  0  0  0  0  0  0
  189.7296  161.9801  112.1161 C   0  0  2  0  0  0  0  0  0  0  0  0
  188.8877  161.5099  113.2873 C   0  0  0  0  0  0  0  0  0  0  0  0
  190.3659  160.8974  111.3443 C   0  0  1  0  0  0  0  0  0  0  0  0
  191.2873  161.2796  110.4060 O   0  0  0  0  0  0  0  0  0  0  0  0
  190.9127  161.3021  109.0850 C   0  0  2  0  0  0  0  0  0  0  0  0
  190.5624  160.0848  108.5298 O   0  0  0  0  0  0  0  0  0  0  0  0
  190.8936  159.9504  107.2045 C   0  0  2  0  0  0  0  0  0  0  0  0
  190.5477  158.5876  106.6496 C   0  0  0  0  0  0  0  0  0  0  0  0
  192.3759  160.1480  106.9734 C   0  0  0  0  0  0  0  0  0  0  0  0
  192.6456  161.5866  107.2242 C   0  0  1  0  0  0  0  0  0  0  0  0
  191.7548  162.1703  108.2364 C   0  0  1  0  0  0  0  0  0  0  0  0
  190.9922  163.1868  107.5864 O   0  0  0  0  0  0  0  0  0  0  0  0
  194.0610  161.8444  107.4888 N   0  0  0  0  0  0  0  0  0  0  0  0
  194.3067  163.2092  106.9895 C   0  0  0  0  0  0  0  0  0  0  0  0
  194.8322  160.9378  106.6567 C   0  0  0  0  0  0  0  0  0  0  0  0
  190.6846  159.6158  112.0335 C   0  0  2  0  0  0  0  0  0  0  0  0
  190.6062  158.5448  110.9258 C   0  0  0  0  0  0  0  0  0  0  0  0
  189.6370  159.2416  112.9068 O   0  0  0  0  0  0  0  0  0  0  0  0
  191.9431  159.3882  112.7401 C   0  0  0  0  0  0  0  0  0  0  0  0
  191.7662  158.9534  114.2038 C   0  0  1  0  0  0  0  0  0  0  0  0
  191.8090  157.4646  114.3633 C   0  0  0  0  0  0  0  0  0  0  0  0
  192.8452  159.5634  115.0669 C   0  0  0  0  0  0  0  0  0  0  0  0
  192.2682  160.2128  116.2548 N   0  0  0  0  0  0  0  0  0  0  0  0
  191.7440  159.2657  117.1887 C   0  0  0  0  0  0  0  0  0  0  0  0
  193.2704  161.0019  116.9343 C   0  0  2  0  0  0  0  0  0  0  0  0
  194.1022  160.0954  117.8501 C   0  0  0  0  0  0  0  0  0  0  0  0
  192.5533  161.9777  117.8213 C   0  0  1  0  0  0  0  0  0  0  0  0
  193.2957  162.1443  118.9977 O   0  0  0  0  0  0  0  0  0  0  0  0
  192.3944  163.3559  117.2164 C   0  0  1  0  0  0  0  0  0  0  0  0
  193.6492  163.8084  116.4918 C   0  0  0  0  0  0  0  0  0  0  0  0
  192.2127  164.2604  118.2609 O   0  0  0  0  0  0  0  0  0  0  0  0
  1  2  1  0
  3  2  1  1
  3  4  1  0
  4  5  1  0
  5  6  2  0
  5  7  1  0
  7  8  1  6
  7  9  1  0
  9 10  1  6
 11 10  1  6
 11 12  1  0
 12 13  1  0
 13 14  1  1
 13 15  1  0
 15 16  1  0
 13 17  1  0
 17 18  1  6
 17 19  1  0
 19 20  1  1
 19 21  1  0
  9 22  1  0
 22 23  1  1
 22 24  1  0
 24 25  1  1
 26 25  1  1
 26 27  1  0
 27 28  1  0
 28 29  1  1
 28 30  1  0
 30 31  1  0
 31 32  1  0
 32 33  1  6
 31 34  1  1
 34 35  1  0
 34 36  1  0
 24 37  1  0
 37 38  1  6
 37 39  1  0
 37 40  1  0
 40 41  1  0
 41 42  1  6
 41 43  1  0
 43 44  1  0
 44 45  1  0
 44 46  1  0
 46 47  1  1
 46 48  1  0
 48 49  1  1
 48 50  1  0
 50 51  1  6
 50 52  1  0
 50  3  1  0
 21 11  1  0
 32 26  1  0
M  END
$$$$
