
     RDKit          3D

 52 54  0  0  0  0  0  0  0  0999 V2000
  182.0218  159.4050  141.6465 C   0  0  0  0  0  0  0  0  0  0  0  0
  181.0921  160.5626  141.5028 C   0  0  0  0  0  0  0  0  0  0  0  0
  181.4377  161.4730  140.3460 C   0  0  1  0  0  0  0  0  0  0  0  0
  181.5575  160.6617  139.2163 O   0  0  0  0  0  0  0  0  0  0  0  0
  182.3487  160.8214  138.1239 C   0  0  0  0  0  0  0  0  0  0  0  0
  181.8404  160.5739  137.0003 O   0  0  0  0  0  0  0  0  0  0  0  0
  183.7811  161.2696  138.1439 C   0  0  2  0  0  0  0  0  0  0  0  0
  184.1698  161.5819  136.7144 C   0  0  0  0  0  0  0  0  0  0  0  0
  184.6884  160.2220  138.6439 C   0  0  1  0  0  0  0  0  0  0  0  0
  184.8285  159.2524  137.6593 O   0  0  0  0  0  0  0  0  0  0  0  0
  184.9499  157.9639  138.1083 C   0  0  1  0  0  0  0  0  0  0  0  0
  183.8790  157.0166  137.6943 C   0  0  0  0  0  0  0  0  0  0  0  0
  184.3921  155.5800  137.8564 C   0  0  1  0  0  0  0  0  0  0  0  0
  184.8945  155.4822  139.2725 C   0  0  0  0  0  0  0  0  0  0  0  0
  183.2900  154.7712  137.6885 O   0  0  0  0  0  0  0  0  0  0  0  0
  183.4848  153.4389  137.9912 C   0  0  0  0  0  0  0  0  0  0  0  0
  185.4709  155.3737  136.8409 C   0  0  1  0  0  0  0  0  0  0  0  0
  184.9140  154.7635  135.6953 O   0  0  0  0  0  0  0  0  0  0  0  0
  186.0199  156.7505  136.4623 C   0  0  2  0  0  0  0  0  0  0  0  0
  187.3890  156.5540  135.8384 C   0  0  0  0  0  0  0  0  0  0  0  0
  186.1734  157.4894  137.6116 O   0  0  0  0  0  0  0  0  0  0  0  0
  185.9253  160.5717  139.3606 C   0  0  2  0  0  0  0  0  0  0  0  0
  185.6006  160.6864  140.8382 C   0  0  0  0  0  0  0  0  0  0  0  0
  186.8867  161.5727  138.8645 C   0  0  1  0  0  0  0  0  0  0  0  0
  187.0572  161.6317  137.5069 O   0  0  0  0  0  0  0  0  0  0  0  0
  188.2816  161.2992  136.9810 C   0  0  2  0  0  0  0  0  0  0  0  0
  189.3723  161.9687  137.5051 O   0  0  0  0  0  0  0  0  0  0  0  0
  190.3761  162.2114  136.6008 C   0  0  2  0  0  0  0  0  0  0  0  0
  191.5239  162.9945  137.1958 C   0  0  0  0  0  0  0  0  0  0  0  0
  189.8807  163.0058  135.4120 C   0  0  0  0  0  0  0  0  0  0  0  0
  188.9820  162.0988  134.6537 C   0  0  1  0  0  0  0  0  0  0  0  0
  188.2803  161.1352  135.5127 C   0  0  1  0  0  0  0  0  0  0  0  0
  188.7105  159.8326  135.1185 O   0  0  0  0  0  0  0  0  0  0  0  0
  188.0840  162.8318  133.7614 N   0  0  0  0  0  0  0  0  0  0  0  0
  186.9713  161.9058  133.4847 C   0  0  0  0  0  0  0  0  0  0  0  0
  188.7892  163.0415  132.5093 C   0  0  0  0  0  0  0  0  0  0  0  0
  186.9707  162.8909  139.5532 C   0  0  2  0  0  0  0  0  0  0  0  0
  188.4290  163.3498  139.3454 C   0  0  0  0  0  0  0  0  0  0  0  0
  186.8889  162.7303  140.9559 O   0  0  0  0  0  0  0  0  0  0  0  0
  186.1249  164.0271  139.1947 C   0  0  0  0  0  0  0  0  0  0  0  0
  185.3274  164.6069  140.3739 C   0  0  1  0  0  0  0  0  0  0  0  0
  186.0221  165.7705  141.0121 C   0  0  0  0  0  0  0  0  0  0  0  0
  183.9597  165.0533  139.9140 C   0  0  0  0  0  0  0  0  0  0  0  0
  182.9057  164.5140  140.7880 N   0  0  0  0  0  0  0  0  0  0  0  0
  182.9142  165.1190  142.0833 C   0  0  0  0  0  0  0  0  0  0  0  0
  181.6032  164.7338  140.2012 C   0  0  2  0  0  0  0  0  0  0  0  0
  181.1278  166.1551  140.5269 C   0  0  0  0  0  0  0  0  0  0  0  0
  180.6429  163.7900  140.8647 C   0  0  1  0  0  0  0  0  0  0  0  0
  179.4045  164.4310  140.9992 O   0  0  0  0  0  0  0  0  0  0  0  0
  180.3857  162.5223  140.0789 C   0  0  1  0  0  0  0  0  0  0  0  0
  180.2394  162.7928  138.5924 C   0  0  0  0  0  0  0  0  0  0  0  0
  179.1589  162.0068  140.4930 O   0  0  0  0  0  0  0  0  0  0  0  0
  1  2  1  0
  3  2  1  1
  3  4  1  0
  4  5  1  0
  5  6  2  0
  5  7  1  0
  7  8  1  6
  7  9  1  0
  9 10  1  6
 11 10  1  6
 11 12  1  0
 12 13  1  0
 13 14  1  1
 13 15  1  0
 15 16  1  0
 13 17  1  0
 17 18  1  6
 17 19  1  0
 19 20  1  1
 19 21  1  0
  9 22  1  0
 22 23  1  1
 22 24  1  0
 24 25  1  6
 26 25  1  6
 26 27  1  0
 27 28  1  0
 28 29  1  1
 28 30  1  0
 30 31  1  0
 31 32  1  0
 32 33  1  1
 31 34  1  1
 34 35  1  0
 34 36  1  0
 24 37  1  0
 37 38  1  1
 37 39  1  0
 37 40  1  0
 40 41  1  0
 41 42  1  6
 41 43  1  0
 43 44  1  0
 44 45  1  0
 44 46  1  0
 46 47  1  1
 46 48  1  0
 48 49  1  6
 48 50  1  0
 50 51  1  6
 50 52  1  0
 50  3  1  0
 21 11  1  0
 32 26  1  0
M  END
$$$$
