
     RDKit          3D

 52 54  0  0  0  0  0  0  0  0999 V2000
  111.9195  172.1576  145.7030 C   0  0  0  0  0  0  0  0  0  0  0  0
  112.7155  171.3278  146.6532 C   0  0  0  0  0  0  0  0  0  0  0  0
  114.1737  171.2067  146.2718 C   0  0  1  0  0  0  0  0  0  0  0  0
  114.2903  171.6877  144.9664 O   0  0  0  0  0  0  0  0  0  0  0  0
  115.1577  171.3180  143.9888 C   0  0  0  0  0  0  0  0  0  0  0  0
  115.6676  172.2324  143.2917 O   0  0  0  0  0  0  0  0  0  0  0  0
  115.5605  169.9077  143.6695 C   0  0  2  0  0  0  0  0  0  0  0  0
  116.7410  169.9851  142.7246 C   0  0  0  0  0  0  0  0  0  0  0  0
  114.4863  169.1578  142.9955 C   0  0  1  0  0  0  0  0  0  0  0  0
  114.3896  169.6068  141.6847 O   0  0  0  0  0  0  0  0  0  0  0  0
  113.1476  170.0317  141.2931 C   0  0  1  0  0  0  0  0  0  0  0  0
  112.8741  170.0129  139.8300 C   0  0  0  0  0  0  0  0  0  0  0  0
  111.3570  170.0447  139.6045 C   0  0  1  0  0  0  0  0  0  0  0  0
  110.8514  171.2263  140.3890 C   0  0  0  0  0  0  0  0  0  0  0  0
  111.1870  170.2647  138.2555 O   0  0  0  0  0  0  0  0  0  0  0  0
  109.9945  170.8622  137.9012 C   0  0  0  0  0  0  0  0  0  0  0  0
  110.8053  168.7431  140.0930 C   0  0  1  0  0  0  0  0  0  0  0  0
  110.6821  167.8564  139.0005 O   0  0  0  0  0  0  0  0  0  0  0  0
  111.8020  168.1665  141.1003 C   0  0  2  0  0  0  0  0  0  0  0  0
  111.0719  167.1418  141.9483 C   0  0  0  0  0  0  0  0  0  0  0  0
  112.2259  169.1825  141.9240 O   0  0  0  0  0  0  0  0  0  0  0  0
  114.3545  167.7027  143.1716 C   0  0  2  0  0  0  0  0  0  0  0  0
  113.4718  167.4494  144.3793 C   0  0  0  0  0  0  0  0  0  0  0  0
  115.4873  166.7699  143.0335 C   0  0  1  0  0  0  0  0  0  0  0  0
  116.4170  167.0794  142.0767 O   0  0  0  0  0  0  0  0  0  0  0  0
  117.1244  166.0588  141.4902 C   0  0  2  0  0  0  0  0  0  0  0  0
  117.9351  165.3175  142.3303 O   0  0  0  0  0  0  0  0  0  0  0  0
  119.0915  164.8636  141.7464 C   0  0  2  0  0  0  0  0  0  0  0  0
  119.9771  164.1081  142.7105 C   0  0  0  0  0  0  0  0  0  0  0  0
  119.9244  165.9995  141.1932 C   0  0  0  0  0  0  0  0  0  0  0  0
  119.1715  166.5371  140.0317 C   0  0  1  0  0  0  0  0  0  0  0  0
  117.7154  166.4115  140.1827 C   0  0  1  0  0  0  0  0  0  0  0  0
  117.2592  165.5516  139.1389 O   0  0  0  0  0  0  0  0  0  0  0  0
  119.5965  167.8914  139.6780 N   0  0  0  0  0  0  0  0  0  0  0  0
  121.0191  167.7685  139.3127 C   0  0  0  0  0  0  0  0  0  0  0  0
  119.5314  168.6978  140.8841 C   0  0  0  0  0  0  0  0  0  0  0  0
  116.0522  166.1396  144.2594 C   0  0  2  0  0  0  0  0  0  0  0  0
  116.6115  164.7837  143.7812 C   0  0  0  0  0  0  0  0  0  0  0  0
  115.0206  165.7579  145.1484 O   0  0  0  0  0  0  0  0  0  0  0  0
  117.1059  166.7632  145.0568 C   0  0  0  0  0  0  0  0  0  0  0  0
  116.7459  166.9332  146.5415 C   0  0  1  0  0  0  0  0  0  0  0  0
  117.2570  165.8042  147.3829 C   0  0  0  0  0  0  0  0  0  0  0  0
  117.3122  168.2281  147.0743 C   0  0  0  0  0  0  0  0  0  0  0  0
  116.2827  169.0025  147.7857 N   0  0  0  0  0  0  0  0  0  0  0  0
  115.9086  168.3958  149.0250 C   0  0  0  0  0  0  0  0  0  0  0  0
  116.7614  170.3366  148.0684 C   0  0  2  0  0  0  0  0  0  0  0  0
  117.6101  170.3164  149.3457 C   0  0  0  0  0  0  0  0  0  0  0  0
  115.5642  171.1960  148.3539 C   0  0  1  0  0  0  0  0  0  0  0  0
  115.9020  172.1186  149.3526 O   0  0  0  0  0  0  0  0  0  0  0  0
  115.0915  172.0052  147.1656 C   0  0  1  0  0  0  0  0  0  0  0  0
  116.2491  172.5971  146.3821 C   0  0  0  0  0  0  0  0  0  0  0  0
  114.3679  173.0924  147.6522 O   0  0  0  0  0  0  0  0  0  0  0  0
  1  2  1  0
  3  2  1  1
  3  4  1  0
  4  5  1  0
  5  6  2  0
  5  7  1  0
  7  8  1  6
  7  9  1  0
  9 10  1  6
 11 10  1  6
 11 12  1  0
 12 13  1  0
 13 14  1  1
 13 15  1  0
 15 16  1  0
 13 17  1  0
 17 18  1  6
 17 19  1  0
 19 20  1  1
 19 21  1  0
  9 22  1  0
 22 23  1  1
 22 24  1  0
 24 25  1  1
 26 25  1  1
 26 27  1  0
 27 28  1  0
 28 29  1  1
 28 30  1  0
 30 31  1  0
 31 32  1  0
 32 33  1  6
 31 34  1  1
 34 35  1  0
 34 36  1  0
 24 37  1  0
 37 38  1  6
 37 39  1  0
 37 40  1  0
 40 41  1  0
 41 42  1  1
 41 43  1  0
 43 44  1  0
 44 45  1  0
 44 46  1  0
 46 47  1  1
 46 48  1  0
 48 49  1  1
 48 50  1  0
 50 51  1  6
 50 52  1  0
 50  3  1  0
 21 11  1  0
 32 26  1  0
M  END
$$$$
