
     RDKit          3D

 52 54  0  0  0  0  0  0  0  0999 V2000
  197.3198  132.4500  131.5366 C   0  0  0  0  0  0  0  0  0  0  0  0
  198.1111  131.4925  132.3626 C   0  0  0  0  0  0  0  0  0  0  0  0
  199.3707  132.0952  132.9428 C   0  0  1  0  0  0  0  0  0  0  0  0
  200.1211  132.5738  131.8673 O   0  0  0  0  0  0  0  0  0  0  0  0
  201.4695  132.6730  131.7370 C   0  0  0  0  0  0  0  0  0  0  0  0
  201.9243  133.7207  131.2102 O   0  0  0  0  0  0  0  0  0  0  0  0
  202.4649  131.6361  132.1697 C   0  0  2  0  0  0  0  0  0  0  0  0
  203.8344  132.2781  132.1015 C   0  0  0  0  0  0  0  0  0  0  0  0
  202.4690  130.4596  131.2828 C   0  0  1  0  0  0  0  0  0  0  0  0
  203.0934  130.8067  130.0918 O   0  0  0  0  0  0  0  0  0  0  0  0
  203.4360  129.7617  129.2749 C   0  0  1  0  0  0  0  0  0  0  0  0
  204.8523  129.7163  128.8192 C   0  0  0  0  0  0  0  0  0  0  0  0
  205.1791  128.2952  128.3430 C   0  0  1  0  0  0  0  0  0  0  0  0
  204.1155  127.9464  127.3358 C   0  0  0  0  0  0  0  0  0  0  0  0
  206.4061  128.3844  127.7237 O   0  0  0  0  0  0  0  0  0  0  0  0
  206.6291  129.5518  127.0223 C   0  0  0  0  0  0  0  0  0  0  0  0
  205.1564  127.4049  129.5448 C   0  0  1  0  0  0  0  0  0  0  0  0
  206.4732  127.2586  130.0342 O   0  0  0  0  0  0  0  0  0  0  0  0
  204.2955  128.0867  130.6099 C   0  0  2  0  0  0  0  0  0  0  0  0
  203.8617  127.0303  131.6090 C   0  0  0  0  0  0  0  0  0  0  0  0
  203.1702  128.5919  130.0026 O   0  0  0  0  0  0  0  0  0  0  0  0
  202.8037  129.1234  131.8007 C   0  0  2  0  0  0  0  0  0  0  0  0
  201.5252  128.4720  132.2935 C   0  0  0  0  0  0  0  0  0  0  0  0
  203.9886  128.8583  132.6362 C   0  0  1  0  0  0  0  0  0  0  0  0
  205.1141  129.5814  132.3428 O   0  0  0  0  0  0  0  0  0  0  0  0
  205.9955  129.8693  133.3558 C   0  0  2  0  0  0  0  0  0  0  0  0
  205.5093  130.6605  134.3806 O   0  0  0  0  0  0  0  0  0  0  0  0
  206.4391  131.5048  134.9344 C   0  0  2  0  0  0  0  0  0  0  0  0
  205.8569  132.3928  136.0101 C   0  0  0  0  0  0  0  0  0  0  0  0
  207.0505  132.4235  133.8990 C   0  0  0  0  0  0  0  0  0  0  0  0
  207.8848  131.5624  133.0229 C   0  0  1  0  0  0  0  0  0  0  0  0
  207.3592  130.1967  132.8907 C   0  0  1  0  0  0  0  0  0  0  0  0
  208.3389  129.3163  133.4406 O   0  0  0  0  0  0  0  0  0  0  0  0
  208.1669  132.1955  131.7346 N   0  0  0  0  0  0  0  0  0  0  0  0
  208.8857  133.4395  132.0629 C   0  0  0  0  0  0  0  0  0  0  0  0
  206.8942  132.5771  131.1483 C   0  0  0  0  0  0  0  0  0  0  0  0
  203.7967  128.5803  134.0871 C   0  0  2  0  0  0  0  0  0  0  0  0
  204.9794  127.6671  134.4713 C   0  0  0  0  0  0  0  0  0  0  0  0
  202.6746  127.7446  134.2938 O   0  0  0  0  0  0  0  0  0  0  0  0
  203.7452  129.6361  135.0957 C   0  0  0  0  0  0  0  0  0  0  0  0
  202.4764  129.6083  135.9630 C   0  0  1  0  0  0  0  0  0  0  0  0
  202.6834  128.8686  137.2490 C   0  0  0  0  0  0  0  0  0  0  0  0
  202.0267  131.0146  136.2811 C   0  0  0  0  0  0  0  0  0  0  0  0
  200.5951  131.1909  135.9893 N   0  0  0  0  0  0  0  0  0  0  0  0
  199.7635  130.4774  136.9077 C   0  0  0  0  0  0  0  0  0  0  0  0
  200.2358  132.5892  136.0555 C   0  0  2  0  0  0  0  0  0  0  0  0
  199.9734  132.9823  137.5146 C   0  0  0  0  0  0  0  0  0  0  0  0
  198.9393  132.7588  135.3182 C   0  0  1  0  0  0  0  0  0  0  0  0
  198.1719  133.7281  135.9771 O   0  0  0  0  0  0  0  0  0  0  0  0
  199.1018  133.2379  133.8919 C   0  0  1  0  0  0  0  0  0  0  0  0
  200.1612  134.3184  133.7708 C   0  0  0  0  0  0  0  0  0  0  0  0
  197.9040  133.8364  133.5053 O   0  0  0  0  0  0  0  0  0  0  0  0
  1  2  1  0
  3  2  1  6
  3  4  1  0
  4  5  1  0
  5  6  2  0
  5  7  1  0
  7  8  1  6
  7  9  1  0
  9 10  1  6
 11 10  1  1
 11 12  1  0
 12 13  1  0
 13 14  1  6
 13 15  1  0
 15 16  1  0
 13 17  1  0
 17 18  1  1
 17 19  1  0
 19 20  1  1
 19 21  1  0
  9 22  1  0
 22 23  1  1
 22 24  1  0
 24 25  1  1
 26 25  1  6
 26 27  1  0
 27 28  1  0
 28 29  1  1
 28 30  1  0
 30 31  1  0
 31 32  1  0
 32 33  1  1
 31 34  1  6
 34 35  1  0
 34 36  1  0
 24 37  1  0
 37 38  1  1
 37 39  1  0
 37 40  1  0
 40 41  1  0
 41 42  1  1
 41 43  1  0
 43 44  1  0
 44 45  1  0
 44 46  1  0
 46 47  1  1
 46 48  1  0
 48 49  1  1
 48 50  1  0
 50 51  1  1
 50 52  1  0
 50  3  1  0
 21 11  1  0
 32 26  1  0
M  END
$$$$
