
     RDKit          3D

 52 54  0  0  0  0  0  0  0  0999 V2000
  189.6565  154.4843  130.5134 C   0  0  0  0  0  0  0  0  0  0  0  0
  189.1535  155.0002  131.8196 C   0  0  0  0  0  0  0  0  0  0  0  0
  188.7893  156.4675  131.7879 C   0  0  1  0  0  0  0  0  0  0  0  0
  188.0482  156.6740  130.6230 O   0  0  0  0  0  0  0  0  0  0  0  0
  187.9643  157.7830  129.8434 C   0  0  0  0  0  0  0  0  0  0  0  0
  186.8263  158.1038  129.4145 O   0  0  0  0  0  0  0  0  0  0  0  0
  189.1170  158.6602  129.4497 C   0  0  2  0  0  0  0  0  0  0  0  0
  188.5323  159.9143  128.8351 C   0  0  0  0  0  0  0  0  0  0  0  0
  189.9871  158.0240  128.4454 C   0  0  1  0  0  0  0  0  0  0  0  0
  189.3340  158.0432  127.2198 O   0  0  0  0  0  0  0  0  0  0  0  0
  189.7489  157.1052  126.3116 C   0  0  1  0  0  0  0  0  0  0  0  0
  189.5930  157.4626  124.8751 C   0  0  0  0  0  0  0  0  0  0  0  0
  190.5095  156.5647  124.0341 C   0  0  1  0  0  0  0  0  0  0  0  0
  190.1795  155.1517  124.4366 C   0  0  0  0  0  0  0  0  0  0  0  0
  190.1417  156.7818  122.7246 O   0  0  0  0  0  0  0  0  0  0  0  0
  188.7827  156.8694  122.5006 C   0  0  0  0  0  0  0  0  0  0  0  0
  191.9209  156.9452  124.3511 C   0  0  1  0  0  0  0  0  0  0  0  0
  192.3777  157.8668  123.3831 O   0  0  0  0  0  0  0  0  0  0  0  0
  191.9220  157.6161  125.7260 C   0  0  2  0  0  0  0  0  0  0  0  0
  193.3372  157.5658  126.2712 C   0  0  0  0  0  0  0  0  0  0  0  0
  191.1117  156.8893  126.5660 O   0  0  0  0  0  0  0  0  0  0  0  0
  191.4270  158.3235  128.3939 C   0  0  2  0  0  0  0  0  0  0  0  0
  192.1464  157.3516  129.3101 C   0  0  0  0  0  0  0  0  0  0  0  0
  191.9642  159.6960  128.4124 C   0  0  1  0  0  0  0  0  0  0  0  0
  191.2281  160.6462  127.7561 O   0  0  0  0  0  0  0  0  0  0  0  0
  191.7265  161.9230  127.6699 C   0  0  2  0  0  0  0  0  0  0  0  0
  192.0995  162.5138  128.8635 O   0  0  0  0  0  0  0  0  0  0  0  0
  191.8922  163.8697  128.9135 C   0  0  2  0  0  0  0  0  0  0  0  0
  192.2573  164.4692  130.2522 C   0  0  0  0  0  0  0  0  0  0  0  0
  190.4434  164.2260  128.6608 C   0  0  0  0  0  0  0  0  0  0  0  0
  190.1846  163.9172  127.2315 C   0  0  1  0  0  0  0  0  0  0  0  0
  190.9890  162.7939  126.7315 C   0  0  1  0  0  0  0  0  0  0  0  0
  191.8330  163.3091  125.7023 O   0  0  0  0  0  0  0  0  0  0  0  0
  188.7569  163.7709  126.9486 N   0  0  0  0  0  0  0  0  0  0  0  0
  188.3748  162.4764  127.5405 C   0  0  0  0  0  0  0  0  0  0  0  0
  188.6082  163.6453  125.5094 C   0  0  0  0  0  0  0  0  0  0  0  0
  192.6417  160.1854  129.6455 C   0  0  2  0  0  0  0  0  0  0  0  0
  193.6688  161.2216  129.1437 C   0  0  0  0  0  0  0  0  0  0  0  0
  193.4606  159.1759  130.2026 O   0  0  0  0  0  0  0  0  0  0  0  0
  191.9204  160.8186  130.7471 C   0  0  0  0  0  0  0  0  0  0  0  0
  192.1515  160.1477  132.1107 C   0  0  1  0  0  0  0  0  0  0  0  0
  193.2375  160.8166  132.8961 C   0  0  0  0  0  0  0  0  0  0  0  0
  190.8814  160.1675  132.9278 C   0  0  0  0  0  0  0  0  0  0  0  0
  190.5771  158.8317  133.4650 N   0  0  0  0  0  0  0  0  0  0  0  0
  191.4948  158.4376  134.4881 C   0  0  0  0  0  0  0  0  0  0  0  0
  189.2453  158.8054  134.0257 C   0  0  2  0  0  0  0  0  0  0  0  0
  189.2805  159.3582  135.4559 C   0  0  0  0  0  0  0  0  0  0  0  0
  188.8239  157.3681  134.1239 C   0  0  1  0  0  0  0  0  0  0  0  0
  188.0587  157.2032  135.2858 O   0  0  0  0  0  0  0  0  0  0  0  0
  187.9599  156.9011  132.9724 C   0  0  1  0  0  0  0  0  0  0  0  0
  186.9292  157.9421  132.5744 C   0  0  0  0  0  0  0  0  0  0  0  0
  187.2327  155.7948  133.4077 O   0  0  0  0  0  0  0  0  0  0  0  0
  1  2  1  0
  3  2  1  1
  3  4  1  0
  4  5  1  0
  5  6  2  0
  5  7  1  0
  7  8  1  6
  7  9  1  0
  9 10  1  6
 11 10  1  1
 11 12  1  0
 12 13  1  0
 13 14  1  1
 13 15  1  0
 15 16  1  0
 13 17  1  0
 17 18  1  6
 17 19  1  0
 19 20  1  1
 19 21  1  0
  9 22  1  0
 22 23  1  1
 22 24  1  0
 24 25  1  1
 26 25  1  1
 26 27  1  0
 27 28  1  0
 28 29  1  1
 28 30  1  0
 30 31  1  0
 31 32  1  0
 32 33  1  6
 31 34  1  1
 34 35  1  0
 34 36  1  0
 24 37  1  0
 37 38  1  6
 37 39  1  0
 37 40  1  0
 40 41  1  0
 41 42  1  1
 41 43  1  0
 43 44  1  0
 44 45  1  0
 44 46  1  0
 46 47  1  1
 46 48  1  0
 48 49  1  1
 48 50  1  0
 50 51  1  6
 50 52  1  0
 50  3  1  0
 21 11  1  0
 32 26  1  0
M  END
$$$$
