
     RDKit          3D

 52 54  0  0  0  0  0  0  0  0999 V2000
  147.2777  165.7860  135.2019 C   0  0  0  0  0  0  0  0  0  0  0  0
  148.7610  165.7315  135.0533 C   0  0  0  0  0  0  0  0  0  0  0  0
  149.3413  166.9403  134.3543 C   0  0  1  0  0  0  0  0  0  0  0  0
  148.3614  167.9341  134.3871 O   0  0  0  0  0  0  0  0  0  0  0  0
  148.1154  168.9280  133.4946 C   0  0  0  0  0  0  0  0  0  0  0  0
  147.8478  170.0669  133.9563 O   0  0  0  0  0  0  0  0  0  0  0  0
  148.1364  168.7820  132.0008 C   0  0  2  0  0  0  0  0  0  0  0  0
  148.0956  170.1782  131.4166 C   0  0  0  0  0  0  0  0  0  0  0  0
  146.9673  168.0422  131.4942 C   0  0  1  0  0  0  0  0  0  0  0  0
  145.8549  168.8706  131.5674 O   0  0  0  0  0  0  0  0  0  0  0  0
  146.1176  170.2012  131.7607 C   0  0  1  0  0  0  0  0  0  0  0  0
  144.9608  171.1286  131.6289 C   0  0  0  0  0  0  0  0  0  0  0  0
  145.3003  172.4534  132.3240 C   0  0  1  0  0  0  0  0  0  0  0  0
  146.6148  172.8974  131.7388 C   0  0  0  0  0  0  0  0  0  0  0  0
  144.3011  173.3293  131.9614 O   0  0  0  0  0  0  0  0  0  0  0  0
  143.1844  173.3182  132.7723 C   0  0  0  0  0  0  0  0  0  0  0  0
  145.3801  172.1799  133.7924 C   0  0  1  0  0  0  0  0  0  0  0  0
  144.1375  172.4922  134.3869 O   0  0  0  0  0  0  0  0  0  0  0  0
  145.6632  170.6870  133.9706 C   0  0  2  0  0  0  0  0  0  0  0  0
  146.2205  170.4789  135.3665 C   0  0  0  0  0  0  0  0  0  0  0  0
  146.6267  170.3150  133.0631 O   0  0  0  0  0  0  0  0  0  0  0  0
  147.0608  167.2234  130.2750 C   0  0  2  0  0  0  0  0  0  0  0  0
  147.4948  165.8257  130.6747 C   0  0  0  0  0  0  0  0  0  0  0  0
  147.6565  167.7151  129.0196 C   0  0  1  0  0  0  0  0  0  0  0  0
  147.4495  169.0364  128.7246 O   0  0  0  0  0  0  0  0  0  0  0  0
  146.1672  169.4649  128.4832 C   0  0  2  0  0  0  0  0  0  0  0  0
  145.3115  168.5386  127.9155 O   0  0  0  0  0  0  0  0  0  0  0  0
  144.3865  169.0748  127.0547 C   0  0  2  0  0  0  0  0  0  0  0  0
  143.5084  168.0264  126.4111 C   0  0  0  0  0  0  0  0  0  0  0  0
  145.0457  169.8387  125.9270 C   0  0  0  0  0  0  0  0  0  0  0  0
  145.6462  171.0492  126.5428 C   0  0  1  0  0  0  0  0  0  0  0  0
  146.0851  170.8317  127.9281 C   0  0  1  0  0  0  0  0  0  0  0  0
  145.3095  171.6999  128.7538 O   0  0  0  0  0  0  0  0  0  0  0  0
  146.6844  171.6402  125.6984 N   0  0  0  0  0  0  0  0  0  0  0  0
  146.0006  172.0146  124.4477 C   0  0  0  0  0  0  0  0  0  0  0  0
  147.6314  170.5888  125.3716 C   0  0  0  0  0  0  0  0  0  0  0  0
  148.9884  167.1932  128.6041 C   0  0  2  0  0  0  0  0  0  0  0  0
  148.9762  167.2694  127.0632 C   0  0  0  0  0  0  0  0  0  0  0  0
  149.0815  165.8034  128.8490 O   0  0  0  0  0  0  0  0  0  0  0  0
  150.2462  167.7971  129.0377 C   0  0  0  0  0  0  0  0  0  0  0  0
  151.2071  166.8120  129.7224 C   0  0  1  0  0  0  0  0  0  0  0  0
  152.2116  166.2423  128.7683 C   0  0  0  0  0  0  0  0  0  0  0  0
  151.9444  167.4953  130.8498 C   0  0  0  0  0  0  0  0  0  0  0  0
  151.8713  166.7019  132.0871 N   0  0  0  0  0  0  0  0  0  0  0  0
  152.6459  165.5028  132.0080 C   0  0  0  0  0  0  0  0  0  0  0  0
  152.3557  167.4731  133.2094 C   0  0  2  0  0  0  0  0  0  0  0  0
  153.8863  167.3926  133.2639 C   0  0  0  0  0  0  0  0  0  0  0  0
  151.8401  166.8239  134.4608 C   0  0  1  0  0  0  0  0  0  0  0  0
  152.8188  166.9303  135.4575 O   0  0  0  0  0  0  0  0  0  0  0  0
  150.5898  167.4697  135.0176 C   0  0  1  0  0  0  0  0  0  0  0  0
  150.6522  168.9849  134.9495 C   0  0  0  0  0  0  0  0  0  0  0  0
  150.5155  167.1538  136.3729 O   0  0  0  0  0  0  0  0  0  0  0  0
  1  2  1  0
  3  2  1  1
  3  4  1  0
  4  5  1  0
  5  6  2  0
  5  7  1  0
  7  8  1  6
  7  9  1  0
  9 10  1  6
 11 10  1  1
 11 12  1  0
 12 13  1  0
 13 14  1  6
 13 15  1  0
 15 16  1  0
 13 17  1  0
 17 18  1  1
 17 19  1  0
 19 20  1  1
 19 21  1  0
  9 22  1  0
 22 23  1  1
 22 24  1  0
 24 25  1  1
 26 25  1  6
 26 27  1  0
 27 28  1  0
 28 29  1  6
 28 30  1  0
 30 31  1  0
 31 32  1  0
 32 33  1  1
 31 34  1  6
 34 35  1  0
 34 36  1  0
 24 37  1  0
 37 38  1  6
 37 39  1  0
 37 40  1  0
 40 41  1  0
 41 42  1  6
 41 43  1  0
 43 44  1  0
 44 45  1  0
 44 46  1  0
 46 47  1  1
 46 48  1  0
 48 49  1  1
 48 50  1  0
 50 51  1  1
 50 52  1  0
 50  3  1  0
 21 11  1  0
 32 26  1  0
M  END
$$$$
