
     RDKit          3D

 52 54  0  0  0  0  0  0  0  0999 V2000
  162.2520  147.8412  132.2368 C   0  0  0  0  0  0  0  0  0  0  0  0
  162.6245  148.6623  131.0485 C   0  0  0  0  0  0  0  0  0  0  0  0
  162.9973  147.8361  129.8381 C   0  0  1  0  0  0  0  0  0  0  0  0
  164.0567  147.0124  130.2229 O   0  0  0  0  0  0  0  0  0  0  0  0
  165.0856  146.5315  129.4780 C   0  0  0  0  0  0  0  0  0  0  0  0
  165.4180  145.3317  129.6568 O   0  0  0  0  0  0  0  0  0  0  0  0
  165.8609  147.3122  128.4569 C   0  0  2  0  0  0  0  0  0  0  0  0
  166.7002  146.3194  127.6809 C   0  0  0  0  0  0  0  0  0  0  0  0
  166.7707  148.2927  129.0746 C   0  0  1  0  0  0  0  0  0  0  0  0
  167.8501  147.6105  129.6210 O   0  0  0  0  0  0  0  0  0  0  0  0
  168.1555  147.9250  130.9189 C   0  0  1  0  0  0  0  0  0  0  0  0
  169.3321  147.2290  131.5078 C   0  0  0  0  0  0  0  0  0  0  0  0
  169.8151  148.0138  132.7342 C   0  0  1  0  0  0  0  0  0  0  0  0
  168.6034  148.1894  133.6108 C   0  0  0  0  0  0  0  0  0  0  0  0
  170.7354  147.1998  133.3567 O   0  0  0  0  0  0  0  0  0  0  0  0
  170.2817  145.9375  133.6815 C   0  0  0  0  0  0  0  0  0  0  0  0
  170.3709  149.3127  132.2430 C   0  0  1  0  0  0  0  0  0  0  0  0
  171.7707  149.1900  132.1006 O   0  0  0  0  0  0  0  0  0  0  0  0
  169.7478  149.5951  130.8746 C   0  0  2  0  0  0  0  0  0  0  0  0
  169.9001  151.0771  130.5869 C   0  0  0  0  0  0  0  0  0  0  0  0
  168.4053  149.3056  130.9392 O   0  0  0  0  0  0  0  0  0  0  0  0
  167.1058  149.5505  128.3880 C   0  0  2  0  0  0  0  0  0  0  0  0
  166.0743  150.5926  128.7777 C   0  0  0  0  0  0  0  0  0  0  0  0
  167.5339  149.6083  126.9788 C   0  0  1  0  0  0  0  0  0  0  0  0
  168.3096  148.5702  126.5357 O   0  0  0  0  0  0  0  0  0  0  0  0
  169.6151  148.8225  126.1921 C   0  0  2  0  0  0  0  0  0  0  0  0
  169.8095  149.6579  125.1073 O   0  0  0  0  0  0  0  0  0  0  0  0
  170.9123  149.3540  124.3487 C   0  0  2  0  0  0  0  0  0  0  0  0
  171.0585  150.2517  123.1415 C   0  0  0  0  0  0  0  0  0  0  0  0
  170.8617  147.9340  123.8282 C   0  0  0  0  0  0  0  0  0  0  0  0
  171.0368  147.0533  125.0110 C   0  0  1  0  0  0  0  0  0  0  0  0
  170.4909  147.6337  126.2454 C   0  0  1  0  0  0  0  0  0  0  0  0
  171.5861  147.8146  127.1427 O   0  0  0  0  0  0  0  0  0  0  0  0
  170.5643  145.6919  124.7596 N   0  0  0  0  0  0  0  0  0  0  0  0
  171.7840  144.8716  124.6522 C   0  0  0  0  0  0  0  0  0  0  0  0
  169.9267  145.6857  123.4547 C   0  0  0  0  0  0  0  0  0  0  0  0
  166.5876  150.1471  125.9623 C   0  0  2  0  0  0  0  0  0  0  0  0
  167.4908  150.7519  124.8674 C   0  0  0  0  0  0  0  0  0  0  0  0
  165.9024  151.2779  126.4642 O   0  0  0  0  0  0  0  0  0  0  0  0
  165.6056  149.3127  125.2736 C   0  0  0  0  0  0  0  0  0  0  0  0
  164.1594  149.8173  125.4023 C   0  0  1  0  0  0  0  0  0  0  0  0
  163.7460  150.6609  124.2356 C   0  0  0  0  0  0  0  0  0  0  0  0
  163.2051  148.6523  125.5188 C   0  0  0  0  0  0  0  0  0  0  0  0
  162.2907  148.8295  126.6582 N   0  0  0  0  0  0  0  0  0  0  0  0
  161.3412  149.8743  126.4330 C   0  0  0  0  0  0  0  0  0  0  0  0
  161.5596  147.6089  126.9120 C   0  0  2  0  0  0  0  0  0  0  0  0
  160.3509  147.5306  125.9710 C   0  0  0  0  0  0  0  0  0  0  0  0
  161.0193  147.6873  128.3102 C   0  0  1  0  0  0  0  0  0  0  0  0
  159.7590  147.0762  128.3393 O   0  0  0  0  0  0  0  0  0  0  0  0
  161.8673  146.9692  129.3377 C   0  0  1  0  0  0  0  0  0  0  0  0
  162.3792  145.6360  128.8229 C   0  0  0  0  0  0  0  0  0  0  0  0
  161.0514  146.6671  130.4264 O   0  0  0  0  0  0  0  0  0  0  0  0
  1  2  1  0
  3  2  1  1
  3  4  1  0
  4  5  1  0
  5  6  2  0
  5  7  1  0
  7  8  1  1
  7  9  1  0
  9 10  1  6
 11 10  1  6
 11 12  1  0
 12 13  1  0
 13 14  1  1
 13 15  1  0
 15 16  1  0
 13 17  1  0
 17 18  1  6
 17 19  1  0
 19 20  1  1
 19 21  1  0
  9 22  1  0
 22 23  1  6
 22 24  1  0
 24 25  1  6
 26 25  1  6
 26 27  1  0
 27 28  1  0
 28 29  1  6
 28 30  1  0
 30 31  1  0
 31 32  1  0
 32 33  1  1
 31 34  1  6
 34 35  1  0
 34 36  1  0
 24 37  1  0
 37 38  1  6
 37 39  1  0
 37 40  1  0
 40 41  1  0
 41 42  1  6
 41 43  1  0
 43 44  1  0
 44 45  1  0
 44 46  1  0
 46 47  1  6
 46 48  1  0
 48 49  1  6
 48 50  1  0
 50 51  1  6
 50 52  1  0
 50  3  1  0
 21 11  1  0
 32 26  1  0
M  END
$$$$
