
     RDKit          3D

 52 54  0  0  0  0  0  0  0  0999 V2000
  152.8287  167.1625  133.3397 C   0  0  0  0  0  0  0  0  0  0  0  0
  151.8771  168.2988  133.1711 C   0  0  0  0  0  0  0  0  0  0  0  0
  151.5334  168.5877  131.7271 C   0  0  1  0  0  0  0  0  0  0  0  0
  151.4300  169.9747  131.6070 O   0  0  0  0  0  0  0  0  0  0  0  0
  150.6466  170.7090  130.7752 C   0  0  0  0  0  0  0  0  0  0  0  0
  151.1664  171.7167  130.2306 O   0  0  0  0  0  0  0  0  0  0  0  0
  149.2103  170.4191  130.4497 C   0  0  2  0  0  0  0  0  0  0  0  0
  148.8309  171.3050  129.2821 C   0  0  0  0  0  0  0  0  0  0  0  0
  148.3079  170.7328  131.5712 C   0  0  1  0  0  0  0  0  0  0  0  0
  148.1843  172.1130  131.6658 O   0  0  0  0  0  0  0  0  0  0  0  0
  147.7313  172.5872  132.8685 C   0  0  1  0  0  0  0  0  0  0  0  0
  147.1259  173.9470  132.8565 C   0  0  0  0  0  0  0  0  0  0  0  0
  146.2661  174.1227  134.1147 C   0  0  1  0  0  0  0  0  0  0  0  0
  147.1609  173.7726  135.2740 C   0  0  0  0  0  0  0  0  0  0  0  0
  145.9387  175.4599  134.1567 O   0  0  0  0  0  0  0  0  0  0  0  0
  145.4933  175.9956  132.9654 C   0  0  0  0  0  0  0  0  0  0  0  0
  145.0935  173.2028  133.9865 C   0  0  1  0  0  0  0  0  0  0  0  0
  143.9987  173.9233  133.4598 O   0  0  0  0  0  0  0  0  0  0  0  0
  145.4819  172.0908  133.0103 C   0  0  2  0  0  0  0  0  0  0  0  0
  144.5400  170.9221  133.2321 C   0  0  0  0  0  0  0  0  0  0  0  0
  146.7586  171.6764  133.3077 O   0  0  0  0  0  0  0  0  0  0  0  0
  147.0621  169.9760  131.7741 C   0  0  2  0  0  0  0  0  0  0  0  0
  147.3734  168.7764  132.6491 C   0  0  0  0  0  0  0  0  0  0  0  0
  146.0963  169.7120  130.6924 C   0  0  1  0  0  0  0  0  0  0  0  0
  145.9366  170.7057  129.7635 O   0  0  0  0  0  0  0  0  0  0  0  0
  144.7043  171.2985  129.6374 C   0  0  2  0  0  0  0  0  0  0  0  0
  143.6285  170.4425  129.4871 O   0  0  0  0  0  0  0  0  0  0  0  0
  142.6265  170.9275  128.6841 C   0  0  2  0  0  0  0  0  0  0  0  0
  141.4961  169.9416  128.4976 C   0  0  0  0  0  0  0  0  0  0  0  0
  143.1329  171.2717  127.3003 C   0  0  0  0  0  0  0  0  0  0  0  0
  144.0113  172.4578  127.4643 C   0  0  1  0  0  0  0  0  0  0  0  0
  144.6972  172.4897  128.7633 C   0  0  1  0  0  0  0  0  0  0  0  0
  144.2405  173.6551  129.4491 O   0  0  0  0  0  0  0  0  0  0  0  0
  144.9202  172.6318  126.3314 N   0  0  0  0  0  0  0  0  0  0  0  0
  145.3555  174.0383  126.3958 C   0  0  0  0  0  0  0  0  0  0  0  0
  144.1377  172.4798  125.1174 C   0  0  0  0  0  0  0  0  0  0  0  0
  145.9952  168.3319  130.1408 C   0  0  2  0  0  0  0  0  0  0  0  0
  144.5348  168.2082  129.6589 C   0  0  0  0  0  0  0  0  0  0  0  0
  146.0666  167.3712  131.1763 O   0  0  0  0  0  0  0  0  0  0  0  0
  146.8342  167.8539  129.0443 C   0  0  0  0  0  0  0  0  0  0  0  0
  147.6168  166.5720  129.3715 C   0  0  1  0  0  0  0  0  0  0  0  0
  146.9067  165.3383  128.9051 C   0  0  0  0  0  0  0  0  0  0  0  0
  148.9844  166.6139  128.7318 C   0  0  0  0  0  0  0  0  0  0  0  0
  150.0356  166.2894  129.7091 N   0  0  0  0  0  0  0  0  0  0  0  0
  150.0111  164.9126  130.0937 C   0  0  0  0  0  0  0  0  0  0  0  0
  151.3410  166.5759  129.1588 C   0  0  2  0  0  0  0  0  0  0  0  0
  151.8014  165.3974  128.2919 C   0  0  0  0  0  0  0  0  0  0  0  0
  152.3038  166.6757  130.3060 C   0  0  1  0  0  0  0  0  0  0  0  0
  153.5355  166.1413  129.9059 O   0  0  0  0  0  0  0  0  0  0  0  0
  152.5784  168.0944  130.7558 C   0  0  1  0  0  0  0  0  0  0  0  0
  152.7349  169.0444  129.5822 C   0  0  0  0  0  0  0  0  0  0  0  0
  153.8061  168.1013  131.4154 O   0  0  0  0  0  0  0  0  0  0  0  0
  1  2  1  0
  3  2  1  1
  3  4  1  0
  4  5  1  0
  5  6  2  0
  5  7  1  0
  7  8  1  6
  7  9  1  0
  9 10  1  6
 11 10  1  6
 11 12  1  0
 12 13  1  0
 13 14  1  1
 13 15  1  0
 15 16  1  0
 13 17  1  0
 17 18  1  6
 17 19  1  0
 19 20  1  1
 19 21  1  0
  9 22  1  0
 22 23  1  6
 22 24  1  0
 24 25  1  6
 26 25  1  6
 26 27  1  0
 27 28  1  0
 28 29  1  6
 28 30  1  0
 30 31  1  0
 31 32  1  0
 32 33  1  1
 31 34  1  6
 34 35  1  0
 34 36  1  0
 24 37  1  0
 37 38  1  6
 37 39  1  0
 37 40  1  0
 40 41  1  0
 41 42  1  6
 41 43  1  0
 43 44  1  0
 44 45  1  0
 44 46  1  0
 46 47  1  6
 46 48  1  0
 48 49  1  6
 48 50  1  0
 50 51  1  6
 50 52  1  0
 50  3  1  0
 21 11  1  0
 32 26  1  0
M  END
$$$$
