
     RDKit          3D

 52 54  0  0  0  0  0  0  0  0999 V2000
  190.7832  159.5833  120.4014 C   0  0  0  0  0  0  0  0  0  0  0  0
  189.6056  159.8039  121.2900 C   0  0  0  0  0  0  0  0  0  0  0  0
  189.7780  160.9666  122.2413 C   0  0  1  0  0  0  0  0  0  0  0  0
  190.9561  160.7338  122.9532 O   0  0  0  0  0  0  0  0  0  0  0  0
  191.2787  161.0947  124.2222 C   0  0  0  0  0  0  0  0  0  0  0  0
  192.4410  161.5323  124.4215 O   0  0  0  0  0  0  0  0  0  0  0  0
  190.3636  161.0157  125.4095 C   0  0  2  0  0  0  0  0  0  0  0  0
  191.0290  161.7780  126.5357 C   0  0  0  0  0  0  0  0  0  0  0  0
  190.1511  159.6296  125.8612 C   0  0  1  0  0  0  0  0  0  0  0  0
  191.3018  159.1938  126.5055 O   0  0  0  0  0  0  0  0  0  0  0  0
  191.8997  158.0851  125.9670 C   0  0  1  0  0  0  0  0  0  0  0  0
  192.2263  156.9849  126.9150 C   0  0  0  0  0  0  0  0  0  0  0  0
  192.4270  155.6861  126.1237 C   0  0  1  0  0  0  0  0  0  0  0  0
  193.4423  156.0082  125.0594 C   0  0  0  0  0  0  0  0  0  0  0  0
  192.9524  154.7825  127.0207 O   0  0  0  0  0  0  0  0  0  0  0  0
  193.1180  153.5004  126.5375 C   0  0  0  0  0  0  0  0  0  0  0  0
  191.0974  155.2962  125.5602 C   0  0  1  0  0  0  0  0  0  0  0  0
  190.4866  154.3623  126.4260 O   0  0  0  0  0  0  0  0  0  0  0  0
  190.2356  156.5583  125.4912 C   0  0  2  0  0  0  0  0  0  0  0  0
  189.1098  156.3040  124.5061 C   0  0  0  0  0  0  0  0  0  0  0  0
  191.0077  157.5869  125.0053 O   0  0  0  0  0  0  0  0  0  0  0  0
  188.8859  159.2265  126.4955 C   0  0  2  0  0  0  0  0  0  0  0  0
  187.9286  158.7840  125.4048 C   0  0  0  0  0  0  0  0  0  0  0  0
  188.2579  159.9860  127.5916 C   0  0  1  0  0  0  0  0  0  0  0  0
  189.1086  160.5715  128.4912 O   0  0  0  0  0  0  0  0  0  0  0  0
  188.8303  160.4588  129.8313 C   0  0  2  0  0  0  0  0  0  0  0  0
  187.9293  161.3732  130.3459 O   0  0  0  0  0  0  0  0  0  0  0  0
  188.1818  161.7495  131.6416 C   0  0  2  0  0  0  0  0  0  0  0  0
  187.2113  162.7915  132.1486 C   0  0  0  0  0  0  0  0  0  0  0  0
  189.5675  162.3377  131.7955 C   0  0  0  0  0  0  0  0  0  0  0  0
  190.5181  161.2137  131.5999 C   0  0  1  0  0  0  0  0  0  0  0  0
  190.0165  160.1919  130.6709 C   0  0  1  0  0  0  0  0  0  0  0  0
  189.8863  158.9796  131.4128 O   0  0  0  0  0  0  0  0  0  0  0  0
  191.8636  161.6812  131.2664 N   0  0  0  0  0  0  0  0  0  0  0  0
  192.7229  160.4873  131.3583 C   0  0  0  0  0  0  0  0  0  0  0  0
  192.2814  162.5926  132.3171 C   0  0  0  0  0  0  0  0  0  0  0  0
  187.0268  160.7745  127.3057 C   0  0  2  0  0  0  0  0  0  0  0  0
  186.2554  160.7953  128.6416 C   0  0  0  0  0  0  0  0  0  0  0  0
  186.1576  160.0559  126.4523 O   0  0  0  0  0  0  0  0  0  0  0  0
  187.0635  162.1548  126.8280 C   0  0  0  0  0  0  0  0  0  0  0  0
  186.2869  162.3830  125.5213 C   0  0  1  0  0  0  0  0  0  0  0  0
  184.8923  162.8713  125.7670 C   0  0  0  0  0  0  0  0  0  0  0  0
  187.0051  163.3882  124.6523 C   0  0  0  0  0  0  0  0  0  0  0  0
  187.1614  162.8837  123.2786 N   0  0  0  0  0  0  0  0  0  0  0  0
  185.9171  162.8301  122.5766 C   0  0  0  0  0  0  0  0  0  0  0  0
  188.0604  163.7320  122.5296 C   0  0  2  0  0  0  0  0  0  0  0  0
  187.2893  164.9404  121.9841 C   0  0  0  0  0  0  0  0  0  0  0  0
  188.5388  162.9478  121.3425 C   0  0  1  0  0  0  0  0  0  0  0  0
  188.6724  163.8190  120.2535 O   0  0  0  0  0  0  0  0  0  0  0  0
  189.8915  162.2984  121.5398 C   0  0  1  0  0  0  0  0  0  0  0  0
  190.8666  163.2178  122.2529 C   0  0  0  0  0  0  0  0  0  0  0  0
  190.4404  162.0678  120.2798 O   0  0  0  0  0  0  0  0  0  0  0  0
  1  2  1  0
  3  2  1  6
  3  4  1  0
  4  5  1  0
  5  6  2  0
  5  7  1  0
  7  8  1  1
  7  9  1  0
  9 10  1  1
 11 10  1  1
 11 12  1  0
 12 13  1  0
 13 14  1  6
 13 15  1  0
 15 16  1  0
 13 17  1  0
 17 18  1  1
 17 19  1  0
 19 20  1  6
 19 21  1  0
  9 22  1  0
 22 23  1  6
 22 24  1  0
 24 25  1  6
 26 25  1  6
 26 27  1  0
 27 28  1  0
 28 29  1  6
 28 30  1  0
 30 31  1  0
 31 32  1  0
 32 33  1  1
 31 34  1  6
 34 35  1  0
 34 36  1  0
 24 37  1  0
 37 38  1  1
 37 39  1  0
 37 40  1  0
 40 41  1  0
 41 42  1  1
 41 43  1  0
 43 44  1  0
 44 45  1  0
 44 46  1  0
 46 47  1  6
 46 48  1  0
 48 49  1  6
 48 50  1  0
 50 51  1  1
 50 52  1  0
 50  3  1  0
 21 11  1  0
 32 26  1  0
M  END
$$$$
