
     RDKit          3D

 52 54  0  0  0  0  0  0  0  0999 V2000
  178.4087  148.1504  125.1819 C   0  0  0  0  0  0  0  0  0  0  0  0
  177.2954  147.4477  125.8834 C   0  0  0  0  0  0  0  0  0  0  0  0
  176.9642  146.0981  125.2871 C   0  0  1  0  0  0  0  0  0  0  0  0
  177.5123  146.0790  124.0033 O   0  0  0  0  0  0  0  0  0  0  0  0
  177.0764  145.4300  122.8926 C   0  0  0  0  0  0  0  0  0  0  0  0
  177.9424  144.8696  122.1729 O   0  0  0  0  0  0  0  0  0  0  0  0
  175.6458  145.3244  122.4506 C   0  0  2  0  0  0  0  0  0  0  0  0
  175.5961  144.2883  121.3478 C   0  0  0  0  0  0  0  0  0  0  0  0
  175.1330  146.5937  121.9062 C   0  0  1  0  0  0  0  0  0  0  0  0
  175.6850  146.7890  120.6467 O   0  0  0  0  0  0  0  0  0  0  0  0
  176.2389  148.0224  120.4262 C   0  0  1  0  0  0  0  0  0  0  0  0
  177.2763  148.0997  119.3616 C   0  0  0  0  0  0  0  0  0  0  0  0
  177.4332  149.5609  118.9215 C   0  0  1  0  0  0  0  0  0  0  0  0
  177.6759  150.3447  120.1841 C   0  0  0  0  0  0  0  0  0  0  0  0
  178.5555  149.5896  118.1237 O   0  0  0  0  0  0  0  0  0  0  0  0
  178.6536  150.6797  117.2830 C   0  0  0  0  0  0  0  0  0  0  0  0
  176.1696  149.9560  118.2255 C   0  0  1  0  0  0  0  0  0  0  0  0
  176.3416  149.7954  116.8328 O   0  0  0  0  0  0  0  0  0  0  0  0
  175.0621  149.0174  118.7083 C   0  0  2  0  0  0  0  0  0  0  0  0
  173.7275  149.6773  118.4154 C   0  0  0  0  0  0  0  0  0  0  0  0
  175.1790  148.8700  120.0702 O   0  0  0  0  0  0  0  0  0  0  0  0
  173.7105  146.9499  122.0299 C   0  0  2  0  0  0  0  0  0  0  0  0
  173.5194  147.6901  123.3403 C   0  0  0  0  0  0  0  0  0  0  0  0
  172.6167  146.0249  121.6829 C   0  0  1  0  0  0  0  0  0  0  0  0
  172.8374  145.1948  120.6161 O   0  0  0  0  0  0  0  0  0  0  0  0
  172.4383  145.6052  119.3678 C   0  0  2  0  0  0  0  0  0  0  0  0
  171.1935  146.2029  119.2914 O   0  0  0  0  0  0  0  0  0  0  0  0
  170.5150  145.9514  118.1250 C   0  0  2  0  0  0  0  0  0  0  0  0
  169.1373  146.5727  118.1031 C   0  0  0  0  0  0  0  0  0  0  0  0
  170.3243  144.4680  117.8949 C   0  0  0  0  0  0  0  0  0  0  0  0
  171.6725  143.9178  117.6035 C   0  0  1  0  0  0  0  0  0  0  0  0
  172.7499  144.6428  118.2908 C   0  0  1  0  0  0  0  0  0  0  0  0
  173.5776  145.2184  117.2805 O   0  0  0  0  0  0  0  0  0  0  0  0
  171.7336  142.4707  117.8083 N   0  0  0  0  0  0  0  0  0  0  0  0
  170.6956  141.9098  116.9251 C   0  0  0  0  0  0  0  0  0  0  0  0
  171.3222  142.2062  119.1758 C   0  0  0  0  0  0  0  0  0  0  0  0
  171.8156  145.4157  122.7812 C   0  0  2  0  0  0  0  0  0  0  0  0
  170.4241  145.1697  122.1618 C   0  0  0  0  0  0  0  0  0  0  0  0
  171.5455  146.3670  123.7924 O   0  0  0  0  0  0  0  0  0  0  0  0
  172.1985  144.1715  123.4446 C   0  0  0  0  0  0  0  0  0  0  0  0
  172.3180  144.2910  124.9724 C   0  0  1  0  0  0  0  0  0  0  0  0
  171.0628  143.8729  125.6748 C   0  0  0  0  0  0  0  0  0  0  0  0
  173.4606  143.4422  125.4778 C   0  0  0  0  0  0  0  0  0  0  0  0
  174.3403  144.2156  126.3686 N   0  0  0  0  0  0  0  0  0  0  0  0
  173.7156  144.5165  127.6188 C   0  0  0  0  0  0  0  0  0  0  0  0
  175.5538  143.4795  126.6416 C   0  0  2  0  0  0  0  0  0  0  0  0
  175.3025  142.4810  127.7784 C   0  0  0  0  0  0  0  0  0  0  0  0
  176.5753  144.4599  127.1402 C   0  0  1  0  0  0  0  0  0  0  0  0
  177.3555  143.8348  128.1217 O   0  0  0  0  0  0  0  0  0  0  0  0
  177.5347  144.9430  126.0741 C   0  0  1  0  0  0  0  0  0  0  0  0
  177.9832  143.8181  125.1587 C   0  0  0  0  0  0  0  0  0  0  0  0
  178.6880  145.3946  126.7129 O   0  0  0  0  0  0  0  0  0  0  0  0
  1  2  1  0
  3  2  1  1
  3  4  1  0
  4  5  1  0
  5  6  2  0
  5  7  1  0
  7  8  1  6
  7  9  1  0
  9 10  1  6
 11 10  1  6
 11 12  1  0
 12 13  1  0
 13 14  1  1
 13 15  1  0
 15 16  1  0
 13 17  1  0
 17 18  1  6
 17 19  1  0
 19 20  1  1
 19 21  1  0
  9 22  1  0
 22 23  1  1
 22 24  1  0
 24 25  1  1
 26 25  1  1
 26 27  1  0
 27 28  1  0
 28 29  1  1
 28 30  1  0
 30 31  1  0
 31 32  1  0
 32 33  1  6
 31 34  1  1
 34 35  1  0
 34 36  1  0
 24 37  1  0
 37 38  1  6
 37 39  1  0
 37 40  1  0
 40 41  1  0
 41 42  1  1
 41 43  1  0
 43 44  1  0
 44 45  1  0
 44 46  1  0
 46 47  1  1
 46 48  1  0
 48 49  1  1
 48 50  1  0
 50 51  1  6
 50 52  1  0
 50  3  1  0
 21 11  1  0
 32 26  1  0
M  END
$$$$
