
     RDKit          3D

 52 54  0  0  0  0  0  0  0  0999 V2000
  185.7559  158.5472  126.5584 C   0  0  0  0  0  0  0  0  0  0  0  0
  186.5982  157.5023  125.9074 C   0  0  0  0  0  0  0  0  0  0  0  0
  187.6107  156.8770  126.8403 C   0  0  1  0  0  0  0  0  0  0  0  0
  186.9990  156.7779  128.0913 O   0  0  0  0  0  0  0  0  0  0  0  0
  187.5576  156.8368  129.3279 C   0  0  0  0  0  0  0  0  0  0  0  0
  187.1461  156.0168  130.1883 O   0  0  0  0  0  0  0  0  0  0  0  0
  188.6269  157.7995  129.7556 C   0  0  2  0  0  0  0  0  0  0  0  0
  189.1441  157.3233  131.0965 C   0  0  0  0  0  0  0  0  0  0  0  0
  188.1113  159.1689  129.9268 C   0  0  1  0  0  0  0  0  0  0  0  0
  187.3638  159.2163  131.0964 O   0  0  0  0  0  0  0  0  0  0  0  0
  186.1050  159.7433  130.9752 C   0  0  1  0  0  0  0  0  0  0  0  0
  185.1526  159.4386  132.0778 C   0  0  0  0  0  0  0  0  0  0  0  0
  184.0034  160.4540  132.0407 C   0  0  1  0  0  0  0  0  0  0  0  0
  183.4694  160.4164  130.6333 C   0  0  0  0  0  0  0  0  0  0  0  0
  183.0565  159.9751  132.9189 O   0  0  0  0  0  0  0  0  0  0  0  0
  181.9893  159.3218  132.3368 C   0  0  0  0  0  0  0  0  0  0  0  0
  184.5725  161.7867  132.4115 C   0  0  1  0  0  0  0  0  0  0  0  0
  184.3693  162.0061  133.7918 O   0  0  0  0  0  0  0  0  0  0  0  0
  186.0745  161.7451  132.1233 C   0  0  2  0  0  0  0  0  0  0  0  0
  186.5721  163.1749  132.0217 C   0  0  0  0  0  0  0  0  0  0  0  0
  186.2678  161.1352  130.9064 O   0  0  0  0  0  0  0  0  0  0  0  0
  188.9731  160.3372  129.6852 C   0  0  2  0  0  0  0  0  0  0  0  0
  188.8603  160.7145  128.2200 C   0  0  0  0  0  0  0  0  0  0  0  0
  190.3286  160.4672  130.2494 C   0  0  1  0  0  0  0  0  0  0  0  0
  190.5168  159.9532  131.5048 O   0  0  0  0  0  0  0  0  0  0  0  0
  189.8618  160.5371  132.5612 C   0  0  2  0  0  0  0  0  0  0  0  0
  189.8438  161.9199  132.5785 O   0  0  0  0  0  0  0  0  0  0  0  0
  189.8829  162.4713  133.8349 C   0  0  2  0  0  0  0  0  0  0  0  0
  189.9203  163.9821  133.8106 C   0  0  0  0  0  0  0  0  0  0  0  0
  191.1032  162.0208  134.6080 C   0  0  0  0  0  0  0  0  0  0  0  0
  190.8992  160.5790  134.8997 C   0  0  1  0  0  0  0  0  0  0  0  0
  190.1217  159.8873  133.8625 C   0  0  1  0  0  0  0  0  0  0  0  0
  188.9211  159.4234  134.4793 O   0  0  0  0  0  0  0  0  0  0  0  0
  192.1531  159.8995  135.2253 N   0  0  0  0  0  0  0  0  0  0  0  0
  191.7952  158.8885  136.2362 C   0  0  0  0  0  0  0  0  0  0  0  0
  193.0181  160.8684  135.8750 C   0  0  0  0  0  0  0  0  0  0  0  0
  191.5011  160.3207  129.3423 C   0  0  2  0  0  0  0  0  0  0  0  0
  192.6014  161.1945  129.9794 C   0  0  0  0  0  0  0  0  0  0  0  0
  191.2634  160.9664  128.1066 O   0  0  0  0  0  0  0  0  0  0  0  0
  192.1179  159.0294  129.0475 C   0  0  0  0  0  0  0  0  0  0  0  0
  192.2042  158.7080  127.5468 C   0  0  1  0  0  0  0  0  0  0  0  0
  193.5305  159.0839  126.9607 C   0  0  0  0  0  0  0  0  0  0  0  0
  191.9715  157.2344  127.3110 C   0  0  0  0  0  0  0  0  0  0  0  0
  190.9635  157.0195  126.2605 N   0  0  0  0  0  0  0  0  0  0  0  0
  191.4473  157.3794  124.9642 C   0  0  0  0  0  0  0  0  0  0  0  0
  190.5672  155.6302  126.2192 C   0  0  2  0  0  0  0  0  0  0  0  0
  191.5817  154.8324  125.3906 C   0  0  0  0  0  0  0  0  0  0  0  0
  189.2557  155.5552  125.4928 C   0  0  1  0  0  0  0  0  0  0  0  0
  189.2310  154.3793  124.7316 O   0  0  0  0  0  0  0  0  0  0  0  0
  188.0500  155.4996  126.4060 C   0  0  1  0  0  0  0  0  0  0  0  0
  188.2805  154.5906  127.5996 C   0  0  0  0  0  0  0  0  0  0  0  0
  187.0005  154.9267  125.6901 O   0  0  0  0  0  0  0  0  0  0  0  0
  1  2  1  0
  3  2  1  6
  3  4  1  0
  4  5  1  0
  5  6  2  0
  5  7  1  0
  7  8  1  1
  7  9  1  0
  9 10  1  1
 11 10  1  1
 11 12  1  0
 12 13  1  0
 13 14  1  6
 13 15  1  0
 15 16  1  0
 13 17  1  0
 17 18  1  1
 17 19  1  0
 19 20  1  6
 19 21  1  0
  9 22  1  0
 22 23  1  6
 22 24  1  0
 24 25  1  1
 26 25  1  6
 26 27  1  0
 27 28  1  0
 28 29  1  6
 28 30  1  0
 30 31  1  0
 31 32  1  0
 32 33  1  1
 31 34  1  6
 34 35  1  0
 34 36  1  0
 24 37  1  0
 37 38  1  1
 37 39  1  0
 37 40  1  0
 40 41  1  0
 41 42  1  1
 41 43  1  0
 43 44  1  0
 44 45  1  0
 44 46  1  0
 46 47  1  6
 46 48  1  0
 48 49  1  1
 48 50  1  0
 50 51  1  1
 50 52  1  0
 50  3  1  0
 21 11  1  0
 32 26  1  0
M  END
$$$$
