
     RDKit          3D

 52 54  0  0  0  0  0  0  0  0999 V2000
  122.0038  169.7467  144.5111 C   0  0  0  0  0  0  0  0  0  0  0  0
  122.0895  169.0716  143.1837 C   0  0  0  0  0  0  0  0  0  0  0  0
  120.8458  169.2405  142.3403 C   0  0  1  0  0  0  0  0  0  0  0  0
  119.8867  169.8471  143.1534 O   0  0  0  0  0  0  0  0  0  0  0  0
  118.5345  169.7214  143.1271 C   0  0  0  0  0  0  0  0  0  0  0  0
  117.8532  170.7682  143.2758 O   0  0  0  0  0  0  0  0  0  0  0  0
  117.7827  168.4364  142.9350 C   0  0  2  0  0  0  0  0  0  0  0  0
  116.3344  168.8010  142.6865 C   0  0  0  0  0  0  0  0  0  0  0  0
  117.8367  167.5728  144.1274 C   0  0  1  0  0  0  0  0  0  0  0  0
  117.0049  168.1112  145.1006 O   0  0  0  0  0  0  0  0  0  0  0  0
  117.6278  168.5385  146.2435 C   0  0  1  0  0  0  0  0  0  0  0  0
  117.0061  169.6975  146.9406 C   0  0  0  0  0  0  0  0  0  0  0  0
  117.5089  169.7379  148.3894 C   0  0  1  0  0  0  0  0  0  0  0  0
  119.0118  169.7064  148.3020 C   0  0  0  0  0  0  0  0  0  0  0  0
  117.0896  170.9490  148.8939 O   0  0  0  0  0  0  0  0  0  0  0  0
  115.7250  171.0812  149.0523 C   0  0  0  0  0  0  0  0  0  0  0  0
  116.9420  168.5456  149.0924 C   0  0  1  0  0  0  0  0  0  0  0  0
  115.7635  168.9283  149.7703 O   0  0  0  0  0  0  0  0  0  0  0  0
  116.5954  167.5022  148.0286 C   0  0  2  0  0  0  0  0  0  0  0  0
  116.4895  166.1521  148.7130 C   0  0  0  0  0  0  0  0  0  0  0  0
  117.6277  167.4448  147.1223 O   0  0  0  0  0  0  0  0  0  0  0  0
  117.7894  166.1072  144.0023 C   0  0  2  0  0  0  0  0  0  0  0  0
  119.2098  165.5990  143.8418 C   0  0  0  0  0  0  0  0  0  0  0  0
  116.7892  165.4019  143.1808 C   0  0  1  0  0  0  0  0  0  0  0  0
  115.5353  165.9515  143.1442 O   0  0  0  0  0  0  0  0  0  0  0  0
  114.5806  165.3636  142.3511 C   0  0  2  0  0  0  0  0  0  0  0  0
  114.8422  165.3465  140.9932 O   0  0  0  0  0  0  0  0  0  0  0  0
  113.7281  165.4638  140.2001 C   0  0  2  0  0  0  0  0  0  0  0  0
  114.0595  165.4992  138.7258 C   0  0  0  0  0  0  0  0  0  0  0  0
  112.9559  166.7300  140.5005 C   0  0  0  0  0  0  0  0  0  0  0  0
  112.3669  166.5449  141.8510 C   0  0  1  0  0  0  0  0  0  0  0  0
  113.1933  165.7043  142.7281 C   0  0  1  0  0  0  0  0  0  0  0  0
  112.4232  164.5446  143.0431 O   0  0  0  0  0  0  0  0  0  0  0  0
  111.9879  167.8168  142.4663 N   0  0  0  0  0  0  0  0  0  0  0  0
  113.2486  168.5645  142.6196 C   0  0  0  0  0  0  0  0  0  0  0  0
  111.4965  167.5258  143.8016 C   0  0  0  0  0  0  0  0  0  0  0  0
  117.2239  164.7748  141.9014 C   0  0  2  0  0  0  0  0  0  0  0  0
  116.2630  163.5844  141.7019 C   0  0  0  0  0  0  0  0  0  0  0  0
  118.4798  164.1426  142.0537 O   0  0  0  0  0  0  0  0  0  0  0  0
  117.2521  165.5002  140.6334 C   0  0  0  0  0  0  0  0  0  0  0  0
  118.6190  165.4739  139.9308 C   0  0  1  0  0  0  0  0  0  0  0  0
  118.7120  164.3820  138.9096 C   0  0  0  0  0  0  0  0  0  0  0  0
  118.8853  166.7960  139.2506 C   0  0  0  0  0  0  0  0  0  0  0  0
  120.2169  167.3136  139.6036 N   0  0  0  0  0  0  0  0  0  0  0  0
  121.2697  166.5446  139.0170 C   0  0  0  0  0  0  0  0  0  0  0  0
  120.3605  168.6807  139.1572 C   0  0  2  0  0  0  0  0  0  0  0  0
  120.7612  168.6969  137.6768 C   0  0  0  0  0  0  0  0  0  0  0  0
  121.4985  169.2899  139.9236 C   0  0  1  0  0  0  0  0  0  0  0  0
  122.1911  170.1660  139.0778 O   0  0  0  0  0  0  0  0  0  0  0  0
  121.0648  170.1053  141.1225 C   0  0  1  0  0  0  0  0  0  0  0  0
  119.8443  170.9563  140.8218 C   0  0  0  0  0  0  0  0  0  0  0  0
  122.0889  171.0028  141.4193 O   0  0  0  0  0  0  0  0  0  0  0  0
  1  2  1  0
  3  2  1  1
  3  4  1  0
  4  5  1  0
  5  6  2  0
  5  7  1  0
  7  8  1  1
  7  9  1  0
  9 10  1  1
 11 10  1  6
 11 12  1  0
 12 13  1  0
 13 14  1  6
 13 15  1  0
 15 16  1  0
 13 17  1  0
 17 18  1  6
 17 19  1  0
 19 20  1  1
 19 21  1  0
  9 22  1  0
 22 23  1  6
 22 24  1  0
 24 25  1  6
 26 25  1  1
 26 27  1  0
 27 28  1  0
 28 29  1  6
 28 30  1  0
 30 31  1  0
 31 32  1  0
 32 33  1  6
 31 34  1  1
 34 35  1  0
 34 36  1  0
 24 37  1  0
 37 38  1  6
 37 39  1  0
 37 40  1  0
 40 41  1  0
 41 42  1  6
 41 43  1  0
 43 44  1  0
 44 45  1  0
 44 46  1  0
 46 47  1  6
 46 48  1  0
 48 49  1  6
 48 50  1  0
 50 51  1  6
 50 52  1  0
 50  3  1  0
 21 11  1  0
 32 26  1  0
M  END
$$$$
