
     RDKit          3D

 52 54  0  0  0  0  0  0  0  0999 V2000
  191.3431  164.7771  123.6700 C   0  0  0  0  0  0  0  0  0  0  0  0
  190.6073  164.6436  122.3793 C   0  0  0  0  0  0  0  0  0  0  0  0
  189.4163  163.7153  122.4579 C   0  0  1  0  0  0  0  0  0  0  0  0
  189.2499  163.3860  123.8043 O   0  0  0  0  0  0  0  0  0  0  0  0
  188.7639  162.2438  124.3557 C   0  0  0  0  0  0  0  0  0  0  0  0
  187.9827  162.3608  125.3345 O   0  0  0  0  0  0  0  0  0  0  0  0
  189.0805  160.8508  123.8948 C   0  0  2  0  0  0  0  0  0  0  0  0
  188.1122  159.9200  124.5934 C   0  0  0  0  0  0  0  0  0  0  0  0
  190.4484  160.4392  124.2556 C   0  0  1  0  0  0  0  0  0  0  0  0
  190.4858  160.1785  125.6193 O   0  0  0  0  0  0  0  0  0  0  0  0
  189.6759  160.9642  126.3961 C   0  0  1  0  0  0  0  0  0  0  0  0
  189.3986  160.4693  127.7723 C   0  0  0  0  0  0  0  0  0  0  0  0
  188.9092  161.6393  128.6353 C   0  0  1  0  0  0  0  0  0  0  0  0
  187.7641  162.2563  127.8768 C   0  0  0  0  0  0  0  0  0  0  0  0
  188.4516  161.0723  129.8041 O   0  0  0  0  0  0  0  0  0  0  0  0
  187.6394  161.8807  130.5732 C   0  0  0  0  0  0  0  0  0  0  0  0
  190.0615  162.5764  128.8125 C   0  0  1  0  0  0  0  0  0  0  0  0
  190.7046  162.2888  130.0367 O   0  0  0  0  0  0  0  0  0  0  0  0
  191.0381  162.3326  127.6605 C   0  0  2  0  0  0  0  0  0  0  0  0
  191.9315  163.5527  127.5369 C   0  0  0  0  0  0  0  0  0  0  0  0
  190.3166  162.2084  126.4967 O   0  0  0  0  0  0  0  0  0  0  0  0
  191.2000  159.4935  123.4151 C   0  0  2  0  0  0  0  0  0  0  0  0
  191.9531  160.2879  122.3647 C   0  0  0  0  0  0  0  0  0  0  0  0
  190.6341  158.2208  122.9327 C   0  0  1  0  0  0  0  0  0  0  0  0
  189.7845  157.5702  123.7873 O   0  0  0  0  0  0  0  0  0  0  0  0
  190.1419  156.3291  124.2543 C   0  0  2  0  0  0  0  0  0  0  0  0
  189.4477  155.8702  125.3589 O   0  0  0  0  0  0  0  0  0  0  0  0
  190.1926  155.0989  126.2158 C   0  0  2  0  0  0  0  0  0  0  0  0
  189.4165  154.6649  127.4381 C   0  0  0  0  0  0  0  0  0  0  0  0
  191.4137  155.8377  126.7186 C   0  0  0  0  0  0  0  0  0  0  0  0
  192.3200  155.9817  125.5511 C   0  0  1  0  0  0  0  0  0  0  0  0
  191.6001  156.0921  124.2750 C   0  0  1  0  0  0  0  0  0  0  0  0
  191.9706  154.9616  123.4864 O   0  0  0  0  0  0  0  0  0  0  0  0
  193.3067  157.0437  125.7466 N   0  0  0  0  0  0  0  0  0  0  0  0
  194.5247  156.5722  125.0637 C   0  0  0  0  0  0  0  0  0  0  0  0
  193.6068  157.1040  127.1663 C   0  0  0  0  0  0  0  0  0  0  0  0
  190.2739  158.0951  121.4927 C   0  0  2  0  0  0  0  0  0  0  0  0
  190.4463  156.5953  121.1748 C   0  0  0  0  0  0  0  0  0  0  0  0
  191.2543  158.7040  120.6752 O   0  0  0  0  0  0  0  0  0  0  0  0
  188.9668  158.4815  120.9666 C   0  0  0  0  0  0  0  0  0  0  0  0
  189.0341  159.4951  119.8129 C   0  0  1  0  0  0  0  0  0  0  0  0
  188.9915  158.8316  118.4706 C   0  0  0  0  0  0  0  0  0  0  0  0
  187.8867  160.4731  119.9055 C   0  0  0  0  0  0  0  0  0  0  0  0
  188.3651  161.8609  119.8018 N   0  0  0  0  0  0  0  0  0  0  0  0
  188.8237  162.1787  118.4855 C   0  0  0  0  0  0  0  0  0  0  0  0
  187.3071  162.7852  120.1411 C   0  0  2  0  0  0  0  0  0  0  0  0
  186.4148  163.0150  118.9150 C   0  0  0  0  0  0  0  0  0  0  0  0
  187.9456  164.1035  120.4690 C   0  0  1  0  0  0  0  0  0  0  0  0
  187.1135  165.1321  120.0083 O   0  0  0  0  0  0  0  0  0  0  0  0
  188.1391  164.3406  121.9512 C   0  0  1  0  0  0  0  0  0  0  0  0
  186.9401  163.8844  122.7627 C   0  0  0  0  0  0  0  0  0  0  0  0
  188.2323  165.7164  122.1532 O   0  0  0  0  0  0  0  0  0  0  0  0
  1  2  1  0
  3  2  1  1
  3  4  1  0
  4  5  1  0
  5  6  2  0
  5  7  1  0
  7  8  1  1
  7  9  1  0
  9 10  1  1
 11 10  1  1
 11 12  1  0
 12 13  1  0
 13 14  1  6
 13 15  1  0
 15 16  1  0
 13 17  1  0
 17 18  1  1
 17 19  1  0
 19 20  1  6
 19 21  1  0
  9 22  1  0
 22 23  1  6
 22 24  1  0
 24 25  1  1
 26 25  1  1
 26 27  1  0
 27 28  1  0
 28 29  1  1
 28 30  1  0
 30 31  1  0
 31 32  1  0
 32 33  1  1
 31 34  1  1
 34 35  1  0
 34 36  1  0
 24 37  1  0
 37 38  1  6
 37 39  1  0
 37 40  1  0
 40 41  1  0
 41 42  1  6
 41 43  1  0
 43 44  1  0
 44 45  1  0
 44 46  1  0
 46 47  1  6
 46 48  1  0
 48 49  1  1
 48 50  1  0
 50 51  1  1
 50 52  1  0
 50  3  1  0
 21 11  1  0
 32 26  1  0
M  END
$$$$
