
     RDKit          3D

 52 54  0  0  0  0  0  0  0  0999 V2000
  157.4713  144.2120  128.5922 C   0  0  0  0  0  0  0  0  0  0  0  0
  157.8379  145.1618  127.5020 C   0  0  0  0  0  0  0  0  0  0  0  0
  158.9475  144.6545  126.6087 C   0  0  1  0  0  0  0  0  0  0  0  0
  159.9147  144.0948  127.4454 O   0  0  0  0  0  0  0  0  0  0  0  0
  161.2602  144.0217  127.2746 C   0  0  0  0  0  0  0  0  0  0  0  0
  161.8247  142.9410  127.5835 O   0  0  0  0  0  0  0  0  0  0  0  0
  162.1323  145.1237  126.7471 C   0  0  2  0  0  0  0  0  0  0  0  0
  163.4888  144.5173  126.4564 C   0  0  0  0  0  0  0  0  0  0  0  0
  162.3188  146.2077  127.7272 C   0  0  1  0  0  0  0  0  0  0  0  0
  163.1870  145.7641  128.7164 O   0  0  0  0  0  0  0  0  0  0  0  0
  162.5944  145.2840  129.8544 C   0  0  1  0  0  0  0  0  0  0  0  0
  163.5090  144.7504  130.9005 C   0  0  0  0  0  0  0  0  0  0  0  0
  162.7654  144.7104  132.2416 C   0  0  1  0  0  0  0  0  0  0  0  0
  161.4920  143.9502  131.9810 C   0  0  0  0  0  0  0  0  0  0  0  0
  163.5769  143.9956  133.0947 O   0  0  0  0  0  0  0  0  0  0  0  0
  164.8694  144.4653  133.2107 C   0  0  0  0  0  0  0  0  0  0  0  0
  162.5226  146.1257  132.6603 C   0  0  1  0  0  0  0  0  0  0  0  0
  163.5491  146.5270  133.5435 O   0  0  0  0  0  0  0  0  0  0  0  0
  162.5711  146.9954  131.4026 C   0  0  2  0  0  0  0  0  0  0  0  0
  161.8660  148.3034  131.7097 C   0  0  0  0  0  0  0  0  0  0  0  0
  161.8752  146.3561  130.4039 O   0  0  0  0  0  0  0  0  0  0  0  0
  162.5254  147.5971  127.2879 C   0  0  2  0  0  0  0  0  0  0  0  0
  161.1664  148.2568  127.1475 C   0  0  0  0  0  0  0  0  0  0  0  0
  163.5012  147.9759  126.2503 C   0  0  1  0  0  0  0  0  0  0  0  0
  164.6683  147.2598  126.2224 O   0  0  0  0  0  0  0  0  0  0  0  0
  165.7836  147.7932  126.8204 C   0  0  2  0  0  0  0  0  0  0  0  0
  165.9779  149.1515  126.6468 O   0  0  0  0  0  0  0  0  0  0  0  0
  167.2950  149.5298  126.5681 C   0  0  2  0  0  0  0  0  0  0  0  0
  167.4651  151.0112  126.3208 C   0  0  0  0  0  0  0  0  0  0  0  0
  168.0175  148.8179  125.4452 C   0  0  0  0  0  0  0  0  0  0  0  0
  168.1195  147.3945  125.8556 C   0  0  1  0  0  0  0  0  0  0  0  0
  166.9935  146.9552  126.6912 C   0  0  1  0  0  0  0  0  0  0  0  0
  167.5323  146.5920  127.9620 O   0  0  0  0  0  0  0  0  0  0  0  0
  168.3692  146.5091  124.7182 N   0  0  0  0  0  0  0  0  0  0  0  0
  167.7186  145.2340  125.0690 C   0  0  0  0  0  0  0  0  0  0  0  0
  169.7991  146.2608  124.6648 C   0  0  0  0  0  0  0  0  0  0  0  0
  163.0001  148.3884  124.9095 C   0  0  2  0  0  0  0  0  0  0  0  0
  164.0663  149.3679  124.3766 C   0  0  0  0  0  0  0  0  0  0  0  0
  161.8541  149.2081  125.0324 O   0  0  0  0  0  0  0  0  0  0  0  0
  162.7403  147.4349  123.8333 C   0  0  0  0  0  0  0  0  0  0  0  0
  161.3146  147.5111  123.2638 C   0  0  1  0  0  0  0  0  0  0  0  0
  161.2354  148.3782  122.0449 C   0  0  0  0  0  0  0  0  0  0  0  0
  160.8166  146.1302  122.9081 C   0  0  0  0  0  0  0  0  0  0  0  0
  159.4823  145.8858  123.4789 N   0  0  0  0  0  0  0  0  0  0  0  0
  158.4680  146.6615  122.8360 C   0  0  0  0  0  0  0  0  0  0  0  0
  159.1268  144.4910  123.3495 C   0  0  2  0  0  0  0  0  0  0  0  0
  158.5596  144.2347  121.9477 C   0  0  0  0  0  0  0  0  0  0  0  0
  158.0202  144.2136  124.3251 C   0  0  1  0  0  0  0  0  0  0  0  0
  157.1358  143.2917  123.7502 O   0  0  0  0  0  0  0  0  0  0  0  0
  158.4887  143.6025  125.6280 C   0  0  1  0  0  0  0  0  0  0  0  0
  159.5567  142.5459  125.4105 C   0  0  0  0  0  0  0  0  0  0  0  0
  157.4061  142.9355  126.1983 O   0  0  0  0  0  0  0  0  0  0  0  0
  1  2  1  0
  3  2  1  1
  3  4  1  0
  4  5  1  0
  5  6  2  0
  5  7  1  0
  7  8  1  1
  7  9  1  0
  9 10  1  6
 11 10  1  6
 11 12  1  0
 12 13  1  0
 13 14  1  6
 13 15  1  0
 15 16  1  0
 13 17  1  0
 17 18  1  1
 17 19  1  0
 19 20  1  1
 19 21  1  0
  9 22  1  0
 22 23  1  6
 22 24  1  0
 24 25  1  6
 26 25  1  6
 26 27  1  0
 27 28  1  0
 28 29  1  6
 28 30  1  0
 30 31  1  0
 31 32  1  0
 32 33  1  1
 31 34  1  6
 34 35  1  0
 34 36  1  0
 24 37  1  0
 37 38  1  6
 37 39  1  0
 37 40  1  0
 40 41  1  0
 41 42  1  6
 41 43  1  0
 43 44  1  0
 44 45  1  0
 44 46  1  0
 46 47  1  6
 46 48  1  0
 48 49  1  6
 48 50  1  0
 50 51  1  6
 50 52  1  0
 50  3  1  0
 21 11  1  0
 32 26  1  0
M  END
$$$$
