
     RDKit          3D

 52 54  0  0  0  0  0  0  0  0999 V2000
  172.2772  143.9373  129.2720 C   0  0  0  0  0  0  0  0  0  0  0  0
  173.4211  144.6651  128.6498 C   0  0  0  0  0  0  0  0  0  0  0  0
  172.9975  145.8554  127.8189 C   0  0  1  0  0  0  0  0  0  0  0  0
  172.1327  146.6127  128.6109 O   0  0  0  0  0  0  0  0  0  0  0  0
  171.0853  147.3921  128.2363 C   0  0  0  0  0  0  0  0  0  0  0  0
  170.9557  148.5029  128.8119 O   0  0  0  0  0  0  0  0  0  0  0  0
  170.0673  147.0394  127.1911 C   0  0  2  0  0  0  0  0  0  0  0  0
  169.2736  148.2957  126.9011 C   0  0  0  0  0  0  0  0  0  0  0  0
  169.1271  146.0033  127.6525 C   0  0  1  0  0  0  0  0  0  0  0  0
  168.2460  146.5786  128.5591 O   0  0  0  0  0  0  0  0  0  0  0  0
  168.6136  146.4984  129.8763 C   0  0  1  0  0  0  0  0  0  0  0  0
  167.5331  146.7120  130.8776 C   0  0  0  0  0  0  0  0  0  0  0  0
  167.9787  146.1311  132.2257 C   0  0  1  0  0  0  0  0  0  0  0  0
  169.3219  146.7479  132.5132 C   0  0  0  0  0  0  0  0  0  0  0  0
  167.0504  146.5697  133.1438 O   0  0  0  0  0  0  0  0  0  0  0  0
  166.8208  147.9306  133.1460 C   0  0  0  0  0  0  0  0  0  0  0  0
  168.0421  144.6445  132.0726 C   0  0  1  0  0  0  0  0  0  0  0  0
  166.8304  144.0824  132.5315 O   0  0  0  0  0  0  0  0  0  0  0  0
  168.2072  144.3391  130.5826 C   0  0  2  0  0  0  0  0  0  0  0  0
  168.7517  142.9290  130.4506 C   0  0  0  0  0  0  0  0  0  0  0  0
  169.1350  145.2088  130.0599 O   0  0  0  0  0  0  0  0  0  0  0  0
  168.5211  145.0553  126.7038 C   0  0  2  0  0  0  0  0  0  0  0  0
  169.4400  143.8544  126.5815 C   0  0  0  0  0  0  0  0  0  0  0  0
  167.8893  145.4754  125.4401 C   0  0  1  0  0  0  0  0  0  0  0  0
  167.2126  146.6658  125.4646 O   0  0  0  0  0  0  0  0  0  0  0  0
  165.8927  146.6819  125.0854 C   0  0  2  0  0  0  0  0  0  0  0  0
  165.6304  146.3249  123.7753 O   0  0  0  0  0  0  0  0  0  0  0  0
  164.5711  146.9888  123.2085 C   0  0  2  0  0  0  0  0  0  0  0  0
  164.3522  146.6145  121.7605 C   0  0  0  0  0  0  0  0  0  0  0  0
  164.7655  148.4891  123.2428 C   0  0  0  0  0  0  0  0  0  0  0  0
  164.6634  148.8870  124.6699 C   0  0  1  0  0  0  0  0  0  0  0  0
  165.1361  147.8454  125.5921 C   0  0  1  0  0  0  0  0  0  0  0  0
  164.0183  147.4526  126.3880 O   0  0  0  0  0  0  0  0  0  0  0  0
  165.2689  150.1944  124.9225 N   0  0  0  0  0  0  0  0  0  0  0  0
  166.6300  150.1059  124.3643 C   0  0  0  0  0  0  0  0  0  0  0  0
  165.4038  150.3418  126.3610 C   0  0  0  0  0  0  0  0  0  0  0  0
  168.5921  145.1933  124.1573 C   0  0  2  0  0  0  0  0  0  0  0  0
  167.4632  145.0416  123.1167 C   0  0  0  0  0  0  0  0  0  0  0  0
  169.1757  143.9052  124.1775 O   0  0  0  0  0  0  0  0  0  0  0  0
  169.5721  146.1065  123.5737 C   0  0  0  0  0  0  0  0  0  0  0  0
  170.9354  145.4572  123.2867 C   0  0  1  0  0  0  0  0  0  0  0  0
  171.0514  144.9816  121.8710 C   0  0  0  0  0  0  0  0  0  0  0  0
  172.0518  146.4370  123.5606 C   0  0  0  0  0  0  0  0  0  0  0  0
  173.0874  145.8336  124.4145 N   0  0  0  0  0  0  0  0  0  0  0  0
  173.8365  144.8276  123.7285 C   0  0  0  0  0  0  0  0  0  0  0  0
  174.0131  146.8439  124.8740 C   0  0  2  0  0  0  0  0  0  0  0  0
  175.0713  147.0987  123.7934 C   0  0  0  0  0  0  0  0  0  0  0  0
  174.7339  146.2881  126.0676 C   0  0  1  0  0  0  0  0  0  0  0  0
  176.0588  146.7428  126.0436 O   0  0  0  0  0  0  0  0  0  0  0  0
  174.1543  146.7277  127.3948 C   0  0  1  0  0  0  0  0  0  0  0  0
  173.7672  148.1955  127.3896 C   0  0  0  0  0  0  0  0  0  0  0  0
  175.1540  146.6026  128.3577 O   0  0  0  0  0  0  0  0  0  0  0  0
  1  2  1  0
  3  2  1  1
  3  4  1  0
  4  5  1  0
  5  6  2  0
  5  7  1  0
  7  8  1  1
  7  9  1  0
  9 10  1  6
 11 10  1  6
 11 12  1  0
 12 13  1  0
 13 14  1  1
 13 15  1  0
 15 16  1  0
 13 17  1  0
 17 18  1  6
 17 19  1  0
 19 20  1  1
 19 21  1  0
  9 22  1  0
 22 23  1  6
 22 24  1  0
 24 25  1  1
 26 25  1  6
 26 27  1  0
 27 28  1  0
 28 29  1  6
 28 30  1  0
 30 31  1  0
 31 32  1  0
 32 33  1  6
 31 34  1  6
 34 35  1  0
 34 36  1  0
 24 37  1  0
 37 38  1  6
 37 39  1  0
 37 40  1  0
 40 41  1  0
 41 42  1  6
 41 43  1  0
 43 44  1  0
 44 45  1  0
 44 46  1  0
 46 47  1  6
 46 48  1  0
 48 49  1  1
 48 50  1  0
 50 51  1  6
 50 52  1  0
 50  3  1  0
 21 11  1  0
 32 26  1  0
M  END
$$$$
