
     RDKit          3D

 52 54  0  0  0  0  0  0  0  0999 V2000
  171.3396  178.3664  124.9231 C   0  0  0  0  0  0  0  0  0  0  0  0
  171.6768  178.6333  123.4947 C   0  0  0  0  0  0  0  0  0  0  0  0
  170.4752  178.6087  122.5771 C   0  0  1  0  0  0  0  0  0  0  0  0
  169.4377  179.2523  123.2541 O   0  0  0  0  0  0  0  0  0  0  0  0
  168.0989  179.0361  123.1796 C   0  0  0  0  0  0  0  0  0  0  0  0
  167.3503  180.0466  123.1535 O   0  0  0  0  0  0  0  0  0  0  0  0
  167.4356  177.6907  123.1254 C   0  0  2  0  0  0  0  0  0  0  0  0
  165.9849  177.9241  122.7605 C   0  0  0  0  0  0  0  0  0  0  0  0
  167.4723  176.9958  124.4240 C   0  0  1  0  0  0  0  0  0  0  0  0
  166.5566  177.6013  125.2748 O   0  0  0  0  0  0  0  0  0  0  0  0
  166.8351  177.5037  126.6126 C   0  0  1  0  0  0  0  0  0  0  0  0
  166.8037  178.7739  127.3881 C   0  0  0  0  0  0  0  0  0  0  0  0
  166.6568  178.4457  128.8794 C   0  0  1  0  0  0  0  0  0  0  0  0
  167.7584  177.4687  129.1939 C   0  0  0  0  0  0  0  0  0  0  0  0
  166.8733  179.6328  129.5436 O   0  0  0  0  0  0  0  0  0  0  0  0
  166.3541  180.7548  128.9303 C   0  0  0  0  0  0  0  0  0  0  0  0
  165.2918  177.8667  129.0770 C   0  0  1  0  0  0  0  0  0  0  0  0
  164.4118  178.8923  129.4877 O   0  0  0  0  0  0  0  0  0  0  0  0
  164.8250  177.3111  127.7302 C   0  0  2  0  0  0  0  0  0  0  0  0
  163.7087  176.3180  127.9942 C   0  0  0  0  0  0  0  0  0  0  0  0
  165.8731  176.6357  127.1508 O   0  0  0  0  0  0  0  0  0  0  0  0
  167.5179  175.5265  124.4944 C   0  0  2  0  0  0  0  0  0  0  0  0
  168.9724  175.0958  124.4724 C   0  0  0  0  0  0  0  0  0  0  0  0
  166.6087  174.6559  123.7275 C   0  0  1  0  0  0  0  0  0  0  0  0
  165.3289  175.1128  123.5569 O   0  0  0  0  0  0  0  0  0  0  0  0
  164.2855  174.2451  123.7677 C   0  0  2  0  0  0  0  0  0  0  0  0
  164.3817  173.0134  123.1460 O   0  0  0  0  0  0  0  0  0  0  0  0
  163.1802  172.4884  122.7401 C   0  0  2  0  0  0  0  0  0  0  0  0
  163.3316  171.1711  122.0146 C   0  0  0  0  0  0  0  0  0  0  0  0
  162.4502  173.4201  121.7972 C   0  0  0  0  0  0  0  0  0  0  0  0
  162.0280  174.5869  122.6130 C   0  0  1  0  0  0  0  0  0  0  0  0
  162.9538  174.8828  123.7150 C   0  0  1  0  0  0  0  0  0  0  0  0
  162.2269  174.7072  124.9307 O   0  0  0  0  0  0  0  0  0  0  0  0
  161.7263  175.7565  121.7878 N   0  0  0  0  0  0  0  0  0  0  0  0
  160.4110  175.4768  121.1847 C   0  0  0  0  0  0  0  0  0  0  0  0
  162.6958  175.7893  120.7070 C   0  0  0  0  0  0  0  0  0  0  0  0
  167.1511  173.8967  122.5662 C   0  0  2  0  0  0  0  0  0  0  0  0
  166.2743  172.6300  122.4818 C   0  0  0  0  0  0  0  0  0  0  0  0
  168.4311  173.3733  122.8625 O   0  0  0  0  0  0  0  0  0  0  0  0
  167.2086  174.4502  121.2153 C   0  0  0  0  0  0  0  0  0  0  0  0
  168.6123  174.4218  120.5894 C   0  0  1  0  0  0  0  0  0  0  0  0
  168.8266  173.2141  119.7296 C   0  0  0  0  0  0  0  0  0  0  0  0
  168.8390  175.6581  119.7518 C   0  0  0  0  0  0  0  0  0  0  0  0
  170.1159  176.3034  120.0963 N   0  0  0  0  0  0  0  0  0  0  0  0
  171.2435  175.5349  119.6698 C   0  0  0  0  0  0  0  0  0  0  0  0
  170.2045  177.6068  119.4781 C   0  0  2  0  0  0  0  0  0  0  0  0
  170.6868  177.4554  118.0301 C   0  0  0  0  0  0  0  0  0  0  0  0
  171.2597  178.3841  120.2101 C   0  0  1  0  0  0  0  0  0  0  0  0
  171.9467  179.1855  119.2889 O   0  0  0  0  0  0  0  0  0  0  0  0
  170.7119  179.3193  121.2664 C   0  0  1  0  0  0  0  0  0  0  0  0
  169.4628  180.0419  120.7956 C   0  0  0  0  0  0  0  0  0  0  0  0
  171.6634  180.3129  121.4894 O   0  0  0  0  0  0  0  0  0  0  0  0
  1  2  1  0
  3  2  1  1
  3  4  1  0
  4  5  1  0
  5  6  2  0
  5  7  1  0
  7  8  1  1
  7  9  1  0
  9 10  1  1
 11 10  1  6
 11 12  1  0
 12 13  1  0
 13 14  1  1
 13 15  1  0
 15 16  1  0
 13 17  1  0
 17 18  1  6
 17 19  1  0
 19 20  1  1
 19 21  1  0
  9 22  1  0
 22 23  1  6
 22 24  1  0
 24 25  1  6
 26 25  1  6
 26 27  1  0
 27 28  1  0
 28 29  1  6
 28 30  1  0
 30 31  1  0
 31 32  1  0
 32 33  1  1
 31 34  1  6
 34 35  1  0
 34 36  1  0
 24 37  1  0
 37 38  1  6
 37 39  1  0
 37 40  1  0
 40 41  1  0
 41 42  1  6
 41 43  1  0
 43 44  1  0
 44 45  1  0
 44 46  1  0
 46 47  1  6
 46 48  1  0
 48 49  1  6
 48 50  1  0
 50 51  1  6
 50 52  1  0
 50  3  1  0
 21 11  1  0
 32 26  1  0
M  END
$$$$
