
     RDKit          3D

 52 54  0  0  0  0  0  0  0  0999 V2000
  124.6205  144.1159  137.1366 C   0  0  0  0  0  0  0  0  0  0  0  0
  125.2202  144.8909  136.0178 C   0  0  0  0  0  0  0  0  0  0  0  0
  126.5185  144.3342  135.4755 C   0  0  1  0  0  0  0  0  0  0  0  0
  126.3895  143.0603  135.0905 O   0  0  0  0  0  0  0  0  0  0  0  0
  126.1477  141.7992  135.3883 C   0  0  0  0  0  0  0  0  0  0  0  0
  125.7365  141.2185  136.4339 O   0  0  0  0  0  0  0  0  0  0  0  0
  126.4070  140.8071  134.2684 C   0  0  2  0  0  0  0  0  0  0  0  0
  125.2669  139.8251  134.3110 C   0  0  0  0  0  0  0  0  0  0  0  0
  127.7832  140.1337  134.4401 C   0  0  1  0  0  0  0  0  0  0  0  0
  127.5065  138.8538  134.8897 O   0  0  0  0  0  0  0  0  0  0  0  0
  128.4185  137.8894  134.5581 C   0  0  1  0  0  0  0  0  0  0  0  0
  128.6641  136.8040  135.5417 C   0  0  0  0  0  0  0  0  0  0  0  0
  127.5881  135.8044  135.7397 C   0  0  1  0  0  0  0  0  0  0  0  0
  128.3171  134.4626  136.0183 C   0  0  0  0  0  0  0  0  0  0  0  0
  126.7487  136.0113  136.8175 O   0  0  0  0  0  0  0  0  0  0  0  0
  125.4410  136.2018  136.4829 C   0  0  0  0  0  0  0  0  0  0  0  0
  126.7679  135.5189  134.4946 C   0  0  1  0  0  0  0  0  0  0  0  0
  125.5629  134.9314  134.8846 O   0  0  0  0  0  0  0  0  0  0  0  0
  126.5733  136.7919  133.7433 C   0  0  2  0  0  0  0  0  0  0  0  0
  125.8048  136.5906  132.4799 C   0  0  0  0  0  0  0  0  0  0  0  0
  127.8593  137.2500  133.4133 O   0  0  0  0  0  0  0  0  0  0  0  0
  128.4932  140.1570  133.1166 C   0  0  2  0  0  0  0  0  0  0  0  0
  127.7660  139.1194  132.2723 C   0  0  0  0  0  0  0  0  0  0  0  0
  129.9418  139.9337  133.0646 C   0  0  1  0  0  0  0  0  0  0  0  0
  130.4205  140.3116  131.8074 O   0  0  0  0  0  0  0  0  0  0  0  0
  130.4113  139.3985  130.8057 C   0  0  2  0  0  0  0  0  0  0  0  0
  131.7339  139.1896  130.3025 O   0  0  0  0  0  0  0  0  0  0  0  0
  131.7711  137.8474  129.9300 C   0  0  2  0  0  0  0  0  0  0  0  0
  133.0631  137.4876  129.2433 C   0  0  0  0  0  0  0  0  0  0  0  0
  130.6278  137.5445  128.9774 C   0  0  0  0  0  0  0  0  0  0  0  0
  130.0232  138.8142  128.4403 C   0  0  1  0  0  0  0  0  0  0  0  0
  129.6163  139.7280  129.5755 C   0  0  1  0  0  0  0  0  0  0  0  0
  128.2551  139.6415  129.8213 O   0  0  0  0  0  0  0  0  0  0  0  0
  131.0342  139.4621  127.6122 N   0  0  0  0  0  0  0  0  0  0  0  0
  131.0597  138.8807  126.2814 C   0  0  0  0  0  0  0  0  0  0  0  0
  132.3410  139.1767  128.2203 C   0  0  0  0  0  0  0  0  0  0  0  0
  130.8122  140.7066  134.0338 C   0  0  2  0  0  0  0  0  0  0  0  0
  132.1711  139.9581  134.0161 C   0  0  0  0  0  0  0  0  0  0  0  0
  130.3672  140.5336  135.3020 O   0  0  0  0  0  0  0  0  0  0  0  0
  131.1213  142.0874  133.6063 C   0  0  0  0  0  0  0  0  0  0  0  0
  130.8278  143.2197  134.5223 C   0  0  2  0  0  0  0  0  0  0  0  0
  131.8292  143.4876  135.5812 C   0  0  0  0  0  0  0  0  0  0  0  0
  129.5912  143.0152  135.0965 F   0  0  0  0  0  0  0  0  0  0  0  0
  130.6388  144.5202  133.7687 C   0  0  0  0  0  0  0  0  0  0  0  0
  131.6880  145.1384  133.5461 O   0  0  0  0  0  0  0  0  0  0  0  0
  129.3057  145.0194  133.3287 C   0  0  2  0  0  0  0  0  0  0  0  0
  129.5910  146.0788  132.2679 C   0  0  0  0  0  0  0  0  0  0  0  0
  128.4592  145.5355  134.4346 C   0  0  1  0  0  0  0  0  0  0  0  0
  128.5688  146.9257  134.4152 O   0  0  0  0  0  0  0  0  0  0  0  0
  126.9824  145.2017  134.3323 C   0  0  1  0  0  0  0  0  0  0  0  0
  126.6349  144.6224  132.9821 C   0  0  0  0  0  0  0  0  0  0  0  0
  126.2371  146.4028  134.4162 O   0  0  0  0  0  0  0  0  0  0  0  0
  1  2  1  0
  3  2  1  6
  3  4  1  0
  4  5  1  0
  5  6  2  0
  5  7  1  0
  7  8  1  1
  7  9  1  0
  9 10  1  6
 11 10  1  1
 11 12  1  0
 12 13  1  0
 13 14  1  1
 13 15  1  0
 15 16  1  0
 13 17  1  0
 17 18  1  1
 17 19  1  0
 19 20  1  6
 19 21  1  0
  9 22  1  0
 22 23  1  6
 22 24  1  0
 24 25  1  6
 26 25  1  1
 26 27  1  0
 27 28  1  0
 28 29  1  6
 28 30  1  0
 30 31  1  0
 31 32  1  0
 32 33  1  1
 31 34  1  6
 34 35  1  0
 34 36  1  0
 24 37  1  0
 37 38  1  1
 37 39  1  0
 37 40  1  0
 40 41  1  0
 41 42  1  1
 41 43  1  0
 41 44  1  0
 44 45  2  0
 44 46  1  0
 46 47  1  6
 46 48  1  0
 48 49  1  6
 48 50  1  0
 50 51  1  6
 50 52  1  0
 50  3  1  0
 21 11  1  0
 32 26  1  0
M  END
$$$$
