
     RDKit          3D

 52 54  0  0  0  0  0  0  0  0999 V2000
  184.8884  158.3030  120.5729 C   0  0  0  0  0  0  0  0  0  0  0  0
  185.4738  158.5127  121.9240 C   0  0  0  0  0  0  0  0  0  0  0  0
  186.9793  158.6615  121.9547 C   0  0  1  0  0  0  0  0  0  0  0  0
  187.4710  158.9774  120.7523 O   0  0  0  0  0  0  0  0  0  0  0  0
  187.6782  158.6655  119.4884 C   0  0  0  0  0  0  0  0  0  0  0  0
  187.2698  157.7238  118.7495 O   0  0  0  0  0  0  0  0  0  0  0  0
  188.5943  159.6088  118.7292 C   0  0  2  0  0  0  0  0  0  0  0  0
  187.9682  159.7940  117.3728 C   0  0  0  0  0  0  0  0  0  0  0  0
  190.0258  159.0414  118.6548 C   0  0  1  0  0  0  0  0  0  0  0  0
  190.1696  158.5909  117.3535 O   0  0  0  0  0  0  0  0  0  0  0  0
  190.3021  159.5567  116.3937 C   0  0  1  0  0  0  0  0  0  0  0  0
  191.5625  159.5815  115.6085 C   0  0  0  0  0  0  0  0  0  0  0  0
  191.7789  158.4916  114.6280 C   0  0  1  0  0  0  0  0  0  0  0  0
  192.5449  159.1449  113.4467 C   0  0  0  0  0  0  0  0  0  0  0  0
  192.5614  157.4335  115.0491 O   0  0  0  0  0  0  0  0  0  0  0  0
  193.4353  156.9724  114.1101 C   0  0  0  0  0  0  0  0  0  0  0  0
  190.5053  157.9687  113.9885 C   0  0  1  0  0  0  0  0  0  0  0  0
  190.7680  156.7092  113.4466 O   0  0  0  0  0  0  0  0  0  0  0  0
  189.4258  157.9416  115.0166 C   0  0  2  0  0  0  0  0  0  0  0  0
  188.1242  157.4729  114.4568 C   0  0  0  0  0  0  0  0  0  0  0  0
  189.2704  159.2673  115.4534 O   0  0  0  0  0  0  0  0  0  0  0  0
  190.9908  160.1351  119.0139 C   0  0  2  0  0  0  0  0  0  0  0  0
  190.9843  161.0645  117.8078 C   0  0  0  0  0  0  0  0  0  0  0  0
  192.3673  159.7958  119.3898 C   0  0  1  0  0  0  0  0  0  0  0  0
  192.9711  160.9099  119.9787 O   0  0  0  0  0  0  0  0  0  0  0  0
  193.3234  161.9532  119.1885 C   0  0  2  0  0  0  0  0  0  0  0  0
  194.7071  162.2717  119.3620 O   0  0  0  0  0  0  0  0  0  0  0  0
  195.1365  162.7114  118.1114 C   0  0  2  0  0  0  0  0  0  0  0  0
  196.5528  163.2242  118.1489 C   0  0  0  0  0  0  0  0  0  0  0  0
  194.2386  163.8347  117.6234 C   0  0  0  0  0  0  0  0  0  0  0  0
  193.3980  164.3795  118.7471 C   0  0  1  0  0  0  0  0  0  0  0  0
  192.6301  163.2642  119.4223 C   0  0  1  0  0  0  0  0  0  0  0  0
  191.3181  163.2226  118.9781 O   0  0  0  0  0  0  0  0  0  0  0  0
  194.3021  165.0146  119.6994 N   0  0  0  0  0  0  0  0  0  0  0  0
  194.0862  166.4505  119.7357 C   0  0  0  0  0  0  0  0  0  0  0  0
  195.6696  164.8079  119.2034 C   0  0  0  0  0  0  0  0  0  0  0  0
  192.5715  158.6907  120.4054 C   0  0  2  0  0  0  0  0  0  0  0  0
  194.0676  158.3051  120.2632 C   0  0  0  0  0  0  0  0  0  0  0  0
  191.9134  157.5716  120.0173 O   0  0  0  0  0  0  0  0  0  0  0  0
  192.4105  159.1186  121.8112 C   0  0  0  0  0  0  0  0  0  0  0  0
  191.4628  158.3903  122.6935 C   0  0  2  0  0  0  0  0  0  0  0  0
  191.9581  157.1300  123.2952 C   0  0  0  0  0  0  0  0  0  0  0  0
  190.3040  158.1420  121.9889 F   0  0  0  0  0  0  0  0  0  0  0  0
  190.9814  159.2554  123.8401 C   0  0  0  0  0  0  0  0  0  0  0  0
  191.7189  159.2419  124.8343 O   0  0  0  0  0  0  0  0  0  0  0  0
  189.7275  160.0582  123.7831 C   0  0  2  0  0  0  0  0  0  0  0  0
  189.8399  161.0802  124.9109 C   0  0  0  0  0  0  0  0  0  0  0  0
  188.4867  159.2468  123.8725 C   0  0  1  0  0  0  0  0  0  0  0  0
  188.0387  159.3336  125.1904 O   0  0  0  0  0  0  0  0  0  0  0  0
  187.3465  159.7035  122.9814 C   0  0  1  0  0  0  0  0  0  0  0  0
  187.6263  161.0541  122.3675 C   0  0  0  0  0  0  0  0  0  0  0  0
  186.1937  159.8983  123.7806 O   0  0  0  0  0  0  0  0  0  0  0  0
  1  2  1  0
  3  2  1  6
  3  4  1  0
  4  5  1  0
  5  6  2  0
  5  7  1  0
  7  8  1  6
  7  9  1  0
  9 10  1  6
 11 10  1  1
 11 12  1  0
 12 13  1  0
 13 14  1  6
 13 15  1  0
 15 16  1  0
 13 17  1  0
 17 18  1  1
 17 19  1  0
 19 20  1  6
 19 21  1  0
  9 22  1  0
 22 23  1  6
 22 24  1  0
 24 25  1  1
 26 25  1  1
 26 27  1  0
 27 28  1  0
 28 29  1  1
 28 30  1  0
 30 31  1  0
 31 32  1  0
 32 33  1  6
 31 34  1  1
 34 35  1  0
 34 36  1  0
 24 37  1  0
 37 38  1  1
 37 39  1  0
 37 40  1  0
 40 41  1  0
 41 42  1  1
 41 43  1  0
 41 44  1  0
 44 45  2  0
 44 46  1  0
 46 47  1  1
 46 48  1  0
 48 49  1  1
 48 50  1  0
 50 51  1  6
 50 52  1  0
 50  3  1  0
 21 11  1  0
 32 26  1  0
M  END
$$$$
