
     RDKit          3D

 52 54  0  0  0  0  0  0  0  0999 V2000
  193.4451  163.6422  127.8377 C   0  0  0  0  0  0  0  0  0  0  0  0
  193.1725  162.9015  129.0983 C   0  0  0  0  0  0  0  0  0  0  0  0
  191.9845  161.9657  129.0482 C   0  0  1  0  0  0  0  0  0  0  0  0
  192.0510  161.1352  128.0026 O   0  0  0  0  0  0  0  0  0  0  0  0
  192.0653  160.9445  126.6984 C   0  0  0  0  0  0  0  0  0  0  0  0
  192.1448  161.7275  125.7084 O   0  0  0  0  0  0  0  0  0  0  0  0
  191.9655  159.4961  126.2534 C   0  0  2  0  0  0  0  0  0  0  0  0
  192.9394  159.3428  125.1159 C   0  0  0  0  0  0  0  0  0  0  0  0
  190.5188  159.1438  125.8539 C   0  0  1  0  0  0  0  0  0  0  0  0
  190.5284  159.0884  124.4705 O   0  0  0  0  0  0  0  0  0  0  0  0
  191.2477  160.0629  123.8345 C   0  0  1  0  0  0  0  0  0  0  0  0
  192.4256  159.6406  123.0345 C   0  0  0  0  0  0  0  0  0  0  0  0
  192.1676  158.9184  121.7665 C   0  0  1  0  0  0  0  0  0  0  0  0
  193.2925  159.3707  120.7973 C   0  0  0  0  0  0  0  0  0  0  0  0
  192.2432  157.5397  121.8189 O   0  0  0  0  0  0  0  0  0  0  0  0
  193.4261  157.0597  122.2970 C   0  0  0  0  0  0  0  0  0  0  0  0
  190.8910  159.3383  121.0604 C   0  0  1  0  0  0  0  0  0  0  0  0
  190.5342  158.3341  120.1585 O   0  0  0  0  0  0  0  0  0  0  0  0
  189.8375  159.5973  122.0831 C   0  0  2  0  0  0  0  0  0  0  0  0
  188.5555  160.0537  121.4705 C   0  0  0  0  0  0  0  0  0  0  0  0
  190.3318  160.6277  122.8994 O   0  0  0  0  0  0  0  0  0  0  0  0
  190.1520  157.8369  126.4973 C   0  0  2  0  0  0  0  0  0  0  0  0
  190.9324  156.7905  125.7135 C   0  0  0  0  0  0  0  0  0  0  0  0
  188.7415  157.4491  126.6030 C   0  0  1  0  0  0  0  0  0  0  0  0
  188.6235  156.3831  127.4988 O   0  0  0  0  0  0  0  0  0  0  0  0
  188.3366  155.1515  127.0110 C   0  0  2  0  0  0  0  0  0  0  0  0
  187.2314  154.5764  127.7137 O   0  0  0  0  0  0  0  0  0  0  0  0
  186.5571  153.8121  126.7635 C   0  0  2  0  0  0  0  0  0  0  0  0
  185.4318  153.0171  127.3735 C   0  0  0  0  0  0  0  0  0  0  0  0
  187.5207  152.8407  126.1046 C   0  0  0  0  0  0  0  0  0  0  0  0
  188.7983  152.7307  126.8933 C   0  0  1  0  0  0  0  0  0  0  0  0
  189.4031  154.0999  127.1144 C   0  0  1  0  0  0  0  0  0  0  0  0
  190.4321  154.3408  126.2180 O   0  0  0  0  0  0  0  0  0  0  0  0
  188.4684  152.1148  128.1737 N   0  0  0  0  0  0  0  0  0  0  0  0
  189.4825  151.1480  128.5566 C   0  0  0  0  0  0  0  0  0  0  0  0
  187.2208  151.3622  127.9844 C   0  0  0  0  0  0  0  0  0  0  0  0
  187.7623  158.4779  127.1293 C   0  0  2  0  0  0  0  0  0  0  0  0
  186.3685  157.9280  126.7267 C   0  0  0  0  0  0  0  0  0  0  0  0
  187.8692  159.6293  126.4228 O   0  0  0  0  0  0  0  0  0  0  0  0
  187.7280  158.5876  128.6030 C   0  0  0  0  0  0  0  0  0  0  0  0
  187.9258  159.9138  129.2426 C   0  0  2  0  0  0  0  0  0  0  0  0
  186.7397  160.8000  129.3030 C   0  0  0  0  0  0  0  0  0  0  0  0
  188.9574  160.5652  128.6006 F   0  0  0  0  0  0  0  0  0  0  0  0
  188.4400  159.7845  130.6617 C   0  0  0  0  0  0  0  0  0  0  0  0
  187.5539  159.6469  131.5152 O   0  0  0  0  0  0  0  0  0  0  0  0
  189.8886  159.8184  131.0086 C   0  0  2  0  0  0  0  0  0  0  0  0
  189.9903  159.2338  132.4147 C   0  0  0  0  0  0  0  0  0  0  0  0
  190.5020  161.1673  130.9077 C   0  0  1  0  0  0  0  0  0  0  0  0
  190.5640  161.6831  132.2021 O   0  0  0  0  0  0  0  0  0  0  0  0
  191.9111  161.1995  130.3453 C   0  0  1  0  0  0  0  0  0  0  0  0
  192.4996  159.8134  130.2381 C   0  0  0  0  0  0  0  0  0  0  0  0
  192.7507  161.8822  131.2588 O   0  0  0  0  0  0  0  0  0  0  0  0
  1  2  1  0
  3  2  1  1
  3  4  1  0
  4  5  1  0
  5  6  2  0
  5  7  1  0
  7  8  1  6
  7  9  1  0
  9 10  1  6
 11 10  1  6
 11 12  1  0
 12 13  1  0
 13 14  1  6
 13 15  1  0
 15 16  1  0
 13 17  1  0
 17 18  1  6
 17 19  1  0
 19 20  1  6
 19 21  1  0
  9 22  1  0
 22 23  1  6
 22 24  1  0
 24 25  1  1
 26 25  1  1
 26 27  1  0
 27 28  1  0
 28 29  1  1
 28 30  1  0
 30 31  1  0
 31 32  1  0
 32 33  1  6
 31 34  1  1
 34 35  1  0
 34 36  1  0
 24 37  1  0
 37 38  1  6
 37 39  1  0
 37 40  1  0
 40 41  1  0
 41 42  1  1
 41 43  1  0
 41 44  1  0
 44 45  2  0
 44 46  1  0
 46 47  1  1
 46 48  1  0
 48 49  1  1
 48 50  1  0
 50 51  1  6
 50 52  1  0
 50  3  1  0
 21 11  1  0
 32 26  1  0
M  END
$$$$
