
     RDKit          3D

 52 54  0  0  0  0  0  0  0  0999 V2000
  115.8422  147.0654  159.2352 C   0  0  0  0  0  0  0  0  0  0  0  0
  115.4424  145.7711  158.6213 C   0  0  0  0  0  0  0  0  0  0  0  0
  115.5516  145.7155  157.1132 C   0  0  1  0  0  0  0  0  0  0  0  0
  116.7995  145.9547  156.6972 O   0  0  0  0  0  0  0  0  0  0  0  0
  117.8280  146.7723  156.5913 C   0  0  0  0  0  0  0  0  0  0  0  0
  118.0873  147.9080  157.0839 O   0  0  0  0  0  0  0  0  0  0  0  0
  118.9555  146.2843  155.6989 C   0  0  2  0  0  0  0  0  0  0  0  0
  120.2329  146.6372  156.4127 C   0  0  0  0  0  0  0  0  0  0  0  0
  118.8588  146.9186  154.2970 C   0  0  1  0  0  0  0  0  0  0  0  0
  119.8605  147.8737  154.2618 O   0  0  0  0  0  0  0  0  0  0  0  0
  120.1269  148.4212  153.0367 C   0  0  1  0  0  0  0  0  0  0  0  0
  119.5273  149.7441  152.7265 C   0  0  0  0  0  0  0  0  0  0  0  0
  120.0693  150.9247  153.4397 C   0  0  1  0  0  0  0  0  0  0  0  0
  119.9911  152.0939  152.4217 C   0  0  0  0  0  0  0  0  0  0  0  0
  119.3682  151.3439  154.5540 O   0  0  0  0  0  0  0  0  0  0  0  0
  118.1271  150.7938  154.6768 C   0  0  0  0  0  0  0  0  0  0  0  0
  121.5485  150.8282  153.7671 C   0  0  1  0  0  0  0  0  0  0  0  0
  121.8374  151.7449  154.7797 O   0  0  0  0  0  0  0  0  0  0  0  0
  121.8662  149.4232  154.1519 C   0  0  2  0  0  0  0  0  0  0  0  0
  123.3154  149.2342  154.4543 C   0  0  0  0  0  0  0  0  0  0  0  0
  121.5369  148.6308  153.0401 O   0  0  0  0  0  0  0  0  0  0  0  0
  119.0355  145.8356  153.2712 C   0  0  2  0  0  0  0  0  0  0  0  0
  120.5167  145.4881  153.3307 C   0  0  0  0  0  0  0  0  0  0  0  0
  118.6219  146.0733  151.8843 C   0  0  1  0  0  0  0  0  0  0  0  0
  118.5803  144.8549  151.2014 O   0  0  0  0  0  0  0  0  0  0  0  0
  119.7434  144.3139  150.7636 C   0  0  2  0  0  0  0  0  0  0  0  0
  120.4248  145.2217  149.8931 O   0  0  0  0  0  0  0  0  0  0  0  0
  121.7802  144.9948  150.1235 C   0  0  2  0  0  0  0  0  0  0  0  0
  122.6527  145.7792  149.1780 C   0  0  0  0  0  0  0  0  0  0  0  0
  122.0940  143.5198  149.9446 C   0  0  0  0  0  0  0  0  0  0  0  0
  120.9692  142.8114  149.2381 C   0  0  1  0  0  0  0  0  0  0  0  0
  119.6592  143.0509  149.9564 C   0  0  1  0  0  0  0  0  0  0  0  0
  119.3232  141.9686  150.7541 O   0  0  0  0  0  0  0  0  0  0  0  0
  120.9026  143.3436  147.8817 N   0  0  0  0  0  0  0  0  0  0  0  0
  120.6660  142.2793  146.9219 C   0  0  0  0  0  0  0  0  0  0  0  0
  122.2247  143.9038  147.5701 C   0  0  0  0  0  0  0  0  0  0  0  0
  117.2505  146.6713  151.6474 C   0  0  2  0  0  0  0  0  0  0  0  0
  117.2942  147.1722  150.1796 C   0  0  0  0  0  0  0  0  0  0  0  0
  117.1049  147.8081  152.3702 O   0  0  0  0  0  0  0  0  0  0  0  0
  116.1436  145.6926  151.6931 C   0  0  0  0  0  0  0  0  0  0  0  0
  114.9923  145.9323  152.6008 C   0  0  2  0  0  0  0  0  0  0  0  0
  113.9468  146.8600  152.1086 C   0  0  0  0  0  0  0  0  0  0  0  0
  115.4710  146.3776  153.8146 F   0  0  0  0  0  0  0  0  0  0  0  0
  114.2864  144.6435  152.9690 C   0  0  0  0  0  0  0  0  0  0  0  0
  113.4148  144.2908  152.1638 O   0  0  0  0  0  0  0  0  0  0  0  0
  114.6090  143.8604  154.1948 C   0  0  2  0  0  0  0  0  0  0  0  0
  114.0152  142.4732  153.9669 C   0  0  0  0  0  0  0  0  0  0  0  0
  114.1286  144.4849  155.4538 C   0  0  1  0  0  0  0  0  0  0  0  0
  112.9453  143.8348  155.8039 O   0  0  0  0  0  0  0  0  0  0  0  0
  115.0707  144.3675  156.6377 C   0  0  1  0  0  0  0  0  0  0  0  0
  116.2035  143.4104  156.3549 C   0  0  0  0  0  0  0  0  0  0  0  0
  114.3682  143.7900  157.7233 O   0  0  0  0  0  0  0  0  0  0  0  0
  1  2  1  0
  3  2  1  1
  3  4  1  0
  4  5  1  0
  5  6  2  0
  5  7  1  0
  7  8  1  1
  7  9  1  0
  9 10  1  1
 11 10  1  1
 11 12  1  0
 12 13  1  0
 13 14  1  6
 13 15  1  0
 15 16  1  0
 13 17  1  0
 17 18  1  1
 17 19  1  0
 19 20  1  6
 19 21  1  0
  9 22  1  0
 22 23  1  6
 22 24  1  0
 24 25  1  6
 26 25  1  6
 26 27  1  0
 27 28  1  0
 28 29  1  6
 28 30  1  0
 30 31  1  0
 31 32  1  0
 32 33  1  1
 31 34  1  6
 34 35  1  0
 34 36  1  0
 24 37  1  0
 37 38  1  6
 37 39  1  0
 37 40  1  0
 40 41  1  0
 41 42  1  6
 41 43  1  0
 41 44  1  0
 44 45  2  0
 44 46  1  0
 46 47  1  6
 46 48  1  0
 48 49  1  1
 48 50  1  0
 50 51  1  6
 50 52  1  0
 50  3  1  0
 21 11  1  0
 32 26  1  0
M  END
$$$$
