
     RDKit          3D

 52 54  0  0  0  0  0  0  0  0999 V2000
  144.9246  161.7304  132.3713 C   0  0  0  0  0  0  0  0  0  0  0  0
  146.2346  161.5324  131.6954 C   0  0  0  0  0  0  0  0  0  0  0  0
  146.8339  162.7783  131.0805 C   0  0  1  0  0  0  0  0  0  0  0  0
  147.0126  163.7429  131.9888 O   0  0  0  0  0  0  0  0  0  0  0  0
  146.5093  164.5962  132.8584 C   0  0  0  0  0  0  0  0  0  0  0  0
  145.3506  164.7653  133.3364 O   0  0  0  0  0  0  0  0  0  0  0  0
  147.4952  165.6025  133.4249 C   0  0  2  0  0  0  0  0  0  0  0  0
  147.1815  165.7103  134.8932 C   0  0  0  0  0  0  0  0  0  0  0  0
  147.3846  166.9526  132.6889 C   0  0  1  0  0  0  0  0  0  0  0  0
  146.7255  167.7926  133.5703 O   0  0  0  0  0  0  0  0  0  0  0  0
  145.3717  167.8970  133.4034 C   0  0  1  0  0  0  0  0  0  0  0  0
  144.5170  167.7976  134.6140 C   0  0  0  0  0  0  0  0  0  0  0  0
  144.5481  168.9314  135.5678 C   0  0  1  0  0  0  0  0  0  0  0  0
  143.1072  169.0326  136.1361 C   0  0  0  0  0  0  0  0  0  0  0  0
  145.3790  168.7899  136.6626 O   0  0  0  0  0  0  0  0  0  0  0  0
  144.7691  169.0058  137.8625 C   0  0  0  0  0  0  0  0  0  0  0  0
  144.7767  170.2843  134.9183 C   0  0  1  0  0  0  0  0  0  0  0  0
  145.2134  171.1769  135.8989 O   0  0  0  0  0  0  0  0  0  0  0  0
  145.7556  170.1250  133.8049 C   0  0  2  0  0  0  0  0  0  0  0  0
  146.0081  171.4086  133.0867 C   0  0  0  0  0  0  0  0  0  0  0  0
  145.1760  169.2175  132.9034 O   0  0  0  0  0  0  0  0  0  0  0  0
  148.7693  167.4223  132.3451 C   0  0  2  0  0  0  0  0  0  0  0  0
  149.3661  167.8646  133.6742 C   0  0  0  0  0  0  0  0  0  0  0  0
  148.9523  168.4656  131.3306 C   0  0  1  0  0  0  0  0  0  0  0  0
  150.2972  168.5099  130.9538 O   0  0  0  0  0  0  0  0  0  0  0  0
  151.0482  169.5683  131.3446 C   0  0  2  0  0  0  0  0  0  0  0  0
  151.6374  170.2133  130.2119 O   0  0  0  0  0  0  0  0  0  0  0  0
  151.6858  171.5643  130.5499 C   0  0  2  0  0  0  0  0  0  0  0  0
  152.4130  172.3802  129.5126 C   0  0  0  0  0  0  0  0  0  0  0  0
  152.4020  171.7386  131.8776 C   0  0  0  0  0  0  0  0  0  0  0  0
  153.1490  170.4873  132.2552 C   0  0  1  0  0  0  0  0  0  0  0  0
  152.2212  169.2923  132.2401 C   0  0  1  0  0  0  0  0  0  0  0  0
  151.8066  168.9671  133.5218 O   0  0  0  0  0  0  0  0  0  0  0  0
  154.2172  170.3059  131.2786 N   0  0  0  0  0  0  0  0  0  0  0  0
  153.8781  169.2563  130.3335 C   0  0  0  0  0  0  0  0  0  0  0  0
  155.4025  169.8429  132.0131 C   0  0  0  0  0  0  0  0  0  0  0  0
  148.2106  168.3146  130.0186 C   0  0  2  0  0  0  0  0  0  0  0  0
  148.2734  169.7242  129.3733 C   0  0  0  0  0  0  0  0  0  0  0  0
  146.8886  168.1253  130.2480 O   0  0  0  0  0  0  0  0  0  0  0  0
  148.8664  167.4118  129.0490 C   0  0  0  0  0  0  0  0  0  0  0  0
  148.0974  166.2829  128.4648 C   0  0  2  0  0  0  0  0  0  0  0  0
  147.2090  166.6105  127.3249 C   0  0  0  0  0  0  0  0  0  0  0  0
  147.3631  165.6829  129.4656 F   0  0  0  0  0  0  0  0  0  0  0  0
  149.0055  165.1647  127.9961 C   0  0  0  0  0  0  0  0  0  0  0  0
  149.4330  165.3037  126.8427 O   0  0  0  0  0  0  0  0  0  0  0  0
  149.3594  163.9933  128.8463 C   0  0  2  0  0  0  0  0  0  0  0  0
  150.5883  163.3660  128.1941 C   0  0  0  0  0  0  0  0  0  0  0  0
  148.2514  163.0206  129.0251 C   0  0  1  0  0  0  0  0  0  0  0  0
  148.4848  161.9712  128.1365 O   0  0  0  0  0  0  0  0  0  0  0  0
  148.1361  162.4153  130.4119 C   0  0  1  0  0  0  0  0  0  0  0  0
  149.3396  162.7409  131.2632 C   0  0  0  0  0  0  0  0  0  0  0  0
  148.1436  161.0040  130.2950 O   0  0  0  0  0  0  0  0  0  0  0  0
  1  2  1  0
  3  2  1  1
  3  4  1  0
  4  5  1  0
  5  6  2  0
  5  7  1  0
  7  8  1  1
  7  9  1  0
  9 10  1  1
 11 10  1  1
 11 12  1  0
 12 13  1  0
 13 14  1  1
 13 15  1  0
 15 16  1  0
 13 17  1  0
 17 18  1  1
 17 19  1  0
 19 20  1  6
 19 21  1  0
  9 22  1  0
 22 23  1  1
 22 24  1  0
 24 25  1  6
 26 25  1  6
 26 27  1  0
 27 28  1  0
 28 29  1  6
 28 30  1  0
 30 31  1  0
 31 32  1  0
 32 33  1  1
 31 34  1  6
 34 35  1  0
 34 36  1  0
 24 37  1  0
 37 38  1  6
 37 39  1  0
 37 40  1  0
 40 41  1  0
 41 42  1  6
 41 43  1  0
 41 44  1  0
 44 45  2  0
 44 46  1  0
 46 47  1  6
 46 48  1  0
 48 49  1  6
 48 50  1  0
 50 51  1  1
 50 52  1  0
 50  3  1  0
 21 11  1  0
 32 26  1  0
M  END
$$$$
