
     RDKit          3D

 52 54  0  0  0  0  0  0  0  0999 V2000
  191.9221  157.4731  123.6583 C   0  0  0  0  0  0  0  0  0  0  0  0
  190.9172  156.4134  123.9397 C   0  0  0  0  0  0  0  0  0  0  0  0
  190.4916  156.3012  125.3875 C   0  0  1  0  0  0  0  0  0  0  0  0
  190.3166  157.5025  125.9475 O   0  0  0  0  0  0  0  0  0  0  0  0
  190.8115  158.6598  126.3392 C   0  0  0  0  0  0  0  0  0  0  0  0
  191.9313  159.2243  126.1749 O   0  0  0  0  0  0  0  0  0  0  0  0
  189.8714  159.5217  127.1632 C   0  0  2  0  0  0  0  0  0  0  0  0
  190.0559  160.9304  126.6658 C   0  0  0  0  0  0  0  0  0  0  0  0
  190.1704  159.3748  128.6684 C   0  0  1  0  0  0  0  0  0  0  0  0
  190.8175  160.5457  129.0250 O   0  0  0  0  0  0  0  0  0  0  0  0
  191.9534  160.4012  129.7737 C   0  0  1  0  0  0  0  0  0  0  0  0
  192.9531  161.4988  129.7304 C   0  0  0  0  0  0  0  0  0  0  0  0
  192.5999  162.7722  130.4012 C   0  0  1  0  0  0  0  0  0  0  0  0
  193.9336  163.3198  130.9763 C   0  0  0  0  0  0  0  0  0  0  0  0
  192.0959  163.7728  129.5925 O   0  0  0  0  0  0  0  0  0  0  0  0
  192.7948  163.9680  128.4385 C   0  0  0  0  0  0  0  0  0  0  0  0
  191.7187  162.6062  131.6261 C   0  0  1  0  0  0  0  0  0  0  0  0
  191.1103  163.8321  131.9020 O   0  0  0  0  0  0  0  0  0  0  0  0
  190.7334  161.5176  131.3669 C   0  0  2  0  0  0  0  0  0  0  0  0
  189.8492  161.2643  132.5422 C   0  0  0  0  0  0  0  0  0  0  0  0
  191.4884  160.3593  131.1206 O   0  0  0  0  0  0  0  0  0  0  0  0
  188.8713  159.1704  129.3942 C   0  0  2  0  0  0  0  0  0  0  0  0
  188.1958  160.5346  129.3645 C   0  0  0  0  0  0  0  0  0  0  0  0
  188.8775  158.6331  130.7589 C   0  0  1  0  0  0  0  0  0  0  0  0
  187.5828  158.2350  131.1024 O   0  0  0  0  0  0  0  0  0  0  0  0
  186.7577  159.1377  131.6868 C   0  0  2  0  0  0  0  0  0  0  0  0
  186.8403  159.0469  133.1119 O   0  0  0  0  0  0  0  0  0  0  0  0
  186.6521  160.3498  133.5686 C   0  0  2  0  0  0  0  0  0  0  0  0
  186.5706  160.4149  135.0718 C   0  0  0  0  0  0  0  0  0  0  0  0
  185.3627  160.9149  132.9992 C   0  0  0  0  0  0  0  0  0  0  0  0
  184.5040  159.8215  132.4218 C   0  0  1  0  0  0  0  0  0  0  0  0
  185.2871  159.0111  131.4123 C   0  0  1  0  0  0  0  0  0  0  0  0
  184.9844  159.4012  130.1174 O   0  0  0  0  0  0  0  0  0  0  0  0
  184.0795  158.9707  133.5279 N   0  0  0  0  0  0  0  0  0  0  0  0
  184.0961  159.7070  134.7798 C   0  0  0  0  0  0  0  0  0  0  0  0
  185.0759  157.8987  133.6578 C   0  0  0  0  0  0  0  0  0  0  0  0
  189.7213  157.4052  131.0320 C   0  0  2  0  0  0  0  0  0  0  0  0
  189.8452  157.3560  132.5778 C   0  0  0  0  0  0  0  0  0  0  0  0
  190.9940  157.6100  130.6145 O   0  0  0  0  0  0  0  0  0  0  0  0
  189.0800  156.1289  130.6510 C   0  0  0  0  0  0  0  0  0  0  0  0
  189.7956  155.1920  129.7470 C   0  0  2  0  0  0  0  0  0  0  0  0
  190.8117  154.3159  130.3762 C   0  0  0  0  0  0  0  0  0  0  0  0
  190.3771  155.9171  128.7287 F   0  0  0  0  0  0  0  0  0  0  0  0
  188.8383  154.2800  129.0076 C   0  0  0  0  0  0  0  0  0  0  0  0
  188.5339  153.2511  129.6250 O   0  0  0  0  0  0  0  0  0  0  0  0
  188.3035  154.5890  127.6517 C   0  0  2  0  0  0  0  0  0  0  0  0
  187.0892  153.6826  127.4704 C   0  0  0  0  0  0  0  0  0  0  0  0
  189.2984  154.4320  126.5602 C   0  0  1  0  0  0  0  0  0  0  0  0
  189.0553  153.1949  125.9639 O   0  0  0  0  0  0  0  0  0  0  0  0
  189.2298  155.4786  125.4635 C   0  0  1  0  0  0  0  0  0  0  0  0
  187.9865  156.3270  125.5806 C   0  0  0  0  0  0  0  0  0  0  0  0
  189.1068  154.8223  124.2147 O   0  0  0  0  0  0  0  0  0  0  0  0
  1  2  1  0
  3  2  1  6
  3  4  1  0
  4  5  1  0
  5  6  2  0
  5  7  1  0
  7  8  1  6
  7  9  1  0
  9 10  1  1
 11 10  1  6
 11 12  1  0
 12 13  1  0
 13 14  1  1
 13 15  1  0
 15 16  1  0
 13 17  1  0
 17 18  1  6
 17 19  1  0
 19 20  1  1
 19 21  1  0
  9 22  1  0
 22 23  1  1
 22 24  1  0
 24 25  1  6
 26 25  1  6
 26 27  1  0
 27 28  1  0
 28 29  1  1
 28 30  1  0
 30 31  1  0
 31 32  1  0
 32 33  1  6
 31 34  1  1
 34 35  1  0
 34 36  1  0
 24 37  1  0
 37 38  1  1
 37 39  1  0
 37 40  1  0
 40 41  1  0
 41 42  1  1
 41 43  1  0
 41 44  1  0
 44 45  2  0
 44 46  1  0
 46 47  1  6
 46 48  1  0
 48 49  1  6
 48 50  1  0
 50 51  1  1
 50 52  1  0
 50  3  1  0
 21 11  1  0
 32 26  1  0
M  END
$$$$
