
     RDKit          3D

 52 54  0  0  0  0  0  0  0  0999 V2000
  169.1163  152.2223  131.4194 C   0  0  0  0  0  0  0  0  0  0  0  0
  167.8388  151.9765  130.6985 C   0  0  0  0  0  0  0  0  0  0  0  0
  167.9721  151.2112  129.4000 C   0  0  1  0  0  0  0  0  0  0  0  0
  168.5282  150.0099  129.5871 O   0  0  0  0  0  0  0  0  0  0  0  0
  169.5621  149.2772  129.9504 C   0  0  0  0  0  0  0  0  0  0  0  0
  170.6670  149.5499  130.5021 O   0  0  0  0  0  0  0  0  0  0  0  0
  169.4382  147.7918  129.6609 C   0  0  2  0  0  0  0  0  0  0  0  0
  169.9893  147.0853  130.8705 C   0  0  0  0  0  0  0  0  0  0  0  0
  170.1820  147.4225  128.3619 C   0  0  1  0  0  0  0  0  0  0  0  0
  171.3354  146.7781  128.7758 O   0  0  0  0  0  0  0  0  0  0  0  0
  172.4748  147.0787  128.0809 C   0  0  1  0  0  0  0  0  0  0  0  0
  173.7211  147.2959  128.8591 C   0  0  0  0  0  0  0  0  0  0  0  0
  174.3470  146.1112  129.4924 C   0  0  1  0  0  0  0  0  0  0  0  0
  175.8765  146.3669  129.4252 C   0  0  0  0  0  0  0  0  0  0  0  0
  174.0552  145.9024  130.8267 O   0  0  0  0  0  0  0  0  0  0  0  0
  174.8809  146.5570  131.6915 C   0  0  0  0  0  0  0  0  0  0  0  0
  174.1614  144.8202  128.7157 C   0  0  1  0  0  0  0  0  0  0  0  0
  174.3907  143.7480  129.5799 O   0  0  0  0  0  0  0  0  0  0  0  0
  172.7918  144.8048  128.1267 C   0  0  2  0  0  0  0  0  0  0  0  0
  172.5410  143.5799  127.3118 C   0  0  0  0  0  0  0  0  0  0  0  0
  172.7186  145.9239  127.2813 O   0  0  0  0  0  0  0  0  0  0  0  0
  169.2833  146.5536  127.5292 C   0  0  2  0  0  0  0  0  0  0  0  0
  169.2721  145.2117  128.2485 C   0  0  0  0  0  0  0  0  0  0  0  0
  169.5703  146.3664  126.1032 C   0  0  1  0  0  0  0  0  0  0  0  0
  168.4544  145.8020  125.4795 O   0  0  0  0  0  0  0  0  0  0  0  0
  167.8461  144.7431  126.0676 C   0  0  2  0  0  0  0  0  0  0  0  0
  167.8787  143.6015  125.2062 O   0  0  0  0  0  0  0  0  0  0  0  0
  167.9842  142.5064  126.0614 C   0  0  2  0  0  0  0  0  0  0  0  0
  167.8911  141.1988  125.3184 C   0  0  0  0  0  0  0  0  0  0  0  0
  166.8689  142.5468  127.0912 C   0  0  0  0  0  0  0  0  0  0  0  0
  165.7944  143.5193  126.6841 C   0  0  1  0  0  0  0  0  0  0  0  0
  166.3910  144.8825  126.4098 C   0  0  1  0  0  0  0  0  0  0  0  0
  166.2101  145.7321  127.4896 O   0  0  0  0  0  0  0  0  0  0  0  0
  165.1659  142.9944  125.4771 N   0  0  0  0  0  0  0  0  0  0  0  0
  163.8254  143.5310  125.3193 C   0  0  0  0  0  0  0  0  0  0  0  0
  165.0187  141.5440  125.6603 C   0  0  0  0  0  0  0  0  0  0  0  0
  169.8677  147.5983  125.2735 C   0  0  2  0  0  0  0  0  0  0  0  0
  170.5209  147.0457  123.9793 C   0  0  0  0  0  0  0  0  0  0  0  0
  170.8583  148.3218  125.8492 O   0  0  0  0  0  0  0  0  0  0  0  0
  168.6667  148.3325  124.8220 C   0  0  0  0  0  0  0  0  0  0  0  0
  168.5432  149.7836  125.1155 C   0  0  2  0  0  0  0  0  0  0  0  0
  169.2604  150.7043  124.2025 C   0  0  0  0  0  0  0  0  0  0  0  0
  168.9509  150.0088  126.4132 F   0  0  0  0  0  0  0  0  0  0  0  0
  167.0969  150.2342  125.1334 C   0  0  0  0  0  0  0  0  0  0  0  0
  166.6468  150.5499  124.0242 O   0  0  0  0  0  0  0  0  0  0  0  0
  166.2786  150.2943  126.3771 C   0  0  2  0  0  0  0  0  0  0  0  0
  164.8265  150.3639  125.9130 C   0  0  0  0  0  0  0  0  0  0  0  0
  166.6401  151.4136  127.2839 C   0  0  1  0  0  0  0  0  0  0  0  0
  165.7076  152.4281  127.0687 O   0  0  0  0  0  0  0  0  0  0  0  0
  166.6099  151.0851  128.7652 C   0  0  1  0  0  0  0  0  0  0  0  0
  165.9672  149.7439  129.0249 C   0  0  0  0  0  0  0  0  0  0  0  0
  165.7761  152.0220  129.4226 O   0  0  0  0  0  0  0  0  0  0  0  0
  1  2  1  0
  3  2  1  1
  3  4  1  0
  4  5  1  0
  5  6  2  0
  5  7  1  0
  7  8  1  1
  7  9  1  0
  9 10  1  1
 11 10  1  1
 11 12  1  0
 12 13  1  0
 13 14  1  1
 13 15  1  0
 15 16  1  0
 13 17  1  0
 17 18  1  1
 17 19  1  0
 19 20  1  6
 19 21  1  0
  9 22  1  0
 22 23  1  1
 22 24  1  0
 24 25  1  6
 26 25  1  6
 26 27  1  0
 27 28  1  0
 28 29  1  6
 28 30  1  0
 30 31  1  0
 31 32  1  0
 32 33  1  1
 31 34  1  6
 34 35  1  0
 34 36  1  0
 24 37  1  0
 37 38  1  6
 37 39  1  0
 37 40  1  0
 40 41  1  0
 41 42  1  6
 41 43  1  0
 41 44  1  0
 44 45  2  0
 44 46  1  0
 46 47  1  6
 46 48  1  0
 48 49  1  1
 48 50  1  0
 50 51  1  6
 50 52  1  0
 50  3  1  0
 21 11  1  0
 32 26  1  0
M  END
$$$$
