
     RDKit          3D

 52 54  0  0  0  0  0  0  0  0999 V2000
  141.9083  169.5297  135.1862 C   0  0  0  0  0  0  0  0  0  0  0  0
  143.2422  170.1581  135.3809 C   0  0  0  0  0  0  0  0  0  0  0  0
  144.4064  169.3846  134.8011 C   0  0  1  0  0  0  0  0  0  0  0  0
  144.9159  169.9893  133.7230 O   0  0  0  0  0  0  0  0  0  0  0  0
  144.7765  170.4156  132.4835 C   0  0  0  0  0  0  0  0  0  0  0  0
  143.7839  170.5102  131.7055 O   0  0  0  0  0  0  0  0  0  0  0  0
  146.0518  170.9003  131.8169 C   0  0  2  0  0  0  0  0  0  0  0  0
  145.6760  172.1428  131.0548 C   0  0  0  0  0  0  0  0  0  0  0  0
  146.6499  169.8029  130.9143 C   0  0  1  0  0  0  0  0  0  0  0  0
  146.3658  170.2038  129.6200 O   0  0  0  0  0  0  0  0  0  0  0  0
  146.1014  169.2037  128.7248 C   0  0  1  0  0  0  0  0  0  0  0  0
  144.8578  169.3087  127.9196 C   0  0  0  0  0  0  0  0  0  0  0  0
  144.8120  170.3482  126.8644 C   0  0  1  0  0  0  0  0  0  0  0  0
  143.9687  169.7335  125.7154 C   0  0  0  0  0  0  0  0  0  0  0  0
  144.1896  171.5356  127.1990 O   0  0  0  0  0  0  0  0  0  0  0  0
  142.8488  171.5555  126.9540 C   0  0  0  0  0  0  0  0  0  0  0  0
  146.1540  170.6345  126.2152 C   0  0  1  0  0  0  0  0  0  0  0  0
  146.0836  171.8785  125.5853 O   0  0  0  0  0  0  0  0  0  0  0  0
  147.2169  170.5749  127.2591 C   0  0  2  0  0  0  0  0  0  0  0  0
  148.5780  170.8092  126.6935 C   0  0  0  0  0  0  0  0  0  0  0  0
  147.1724  169.2741  127.7866 O   0  0  0  0  0  0  0  0  0  0  0  0
  148.1223  169.7053  131.1954 C   0  0  2  0  0  0  0  0  0  0  0  0
  148.7176  170.9565  130.5640 C   0  0  0  0  0  0  0  0  0  0  0  0
  148.8664  168.5151  130.7702 C   0  0  1  0  0  0  0  0  0  0  0  0
  150.1112  168.4999  131.4049 O   0  0  0  0  0  0  0  0  0  0  0  0
  150.7813  169.6688  131.5522 C   0  0  2  0  0  0  0  0  0  0  0  0
  151.8558  169.7552  130.6119 O   0  0  0  0  0  0  0  0  0  0  0  0
  151.9499  171.1086  130.2940 C   0  0  2  0  0  0  0  0  0  0  0  0
  153.1349  171.3999  129.4101 C   0  0  0  0  0  0  0  0  0  0  0  0
  152.0934  171.9282  131.5643 C   0  0  0  0  0  0  0  0  0  0  0  0
  152.4486  171.0505  132.7346 C   0  0  1  0  0  0  0  0  0  0  0  0
  151.4497  169.9225  132.8724 C   0  0  1  0  0  0  0  0  0  0  0  0
  150.5178  170.2000  133.8599 O   0  0  0  0  0  0  0  0  0  0  0  0
  153.7818  170.5129  132.4875 N   0  0  0  0  0  0  0  0  0  0  0  0
  154.0378  169.3609  133.3343 C   0  0  0  0  0  0  0  0  0  0  0  0
  154.7470  171.5476  132.8831 C   0  0  0  0  0  0  0  0  0  0  0  0
  148.2755  167.1584  131.0934 C   0  0  2  0  0  0  0  0  0  0  0  0
  149.0448  166.1719  130.1756 C   0  0  0  0  0  0  0  0  0  0  0  0
  146.9991  167.0853  130.6444 O   0  0  0  0  0  0  0  0  0  0  0  0
  148.5368  166.6934  132.4721 C   0  0  0  0  0  0  0  0  0  0  0  0
  147.3982  166.2835  133.3339 C   0  0  2  0  0  0  0  0  0  0  0  0
  146.8807  164.9095  133.1331 C   0  0  0  0  0  0  0  0  0  0  0  0
  146.3731  167.1915  133.1741 F   0  0  0  0  0  0  0  0  0  0  0  0
  147.7322  166.4075  134.8063 C   0  0  0  0  0  0  0  0  0  0  0  0
  148.2901  165.4133  135.2887 O   0  0  0  0  0  0  0  0  0  0  0  0
  147.4194  167.6210  135.6123 C   0  0  2  0  0  0  0  0  0  0  0  0
  148.2807  167.5162  136.8677 C   0  0  0  0  0  0  0  0  0  0  0  0
  145.9763  167.7827  135.9245 C   0  0  1  0  0  0  0  0  0  0  0  0
  145.7894  167.3265  137.2291 O   0  0  0  0  0  0  0  0  0  0  0  0
  145.4557  169.2071  135.8697 C   0  0  1  0  0  0  0  0  0  0  0  0
  146.5809  170.2070  135.7543 C   0  0  0  0  0  0  0  0  0  0  0  0
  144.8248  169.5091  137.1011 O   0  0  0  0  0  0  0  0  0  0  0  0
  1  2  1  0
  3  2  1  1
  3  4  1  0
  4  5  1  0
  5  6  2  0
  5  7  1  0
  7  8  1  6
  7  9  1  0
  9 10  1  6
 11 10  1  1
 11 12  1  0
 12 13  1  0
 13 14  1  6
 13 15  1  0
 15 16  1  0
 13 17  1  0
 17 18  1  1
 17 19  1  0
 19 20  1  6
 19 21  1  0
  9 22  1  0
 22 23  1  6
 22 24  1  0
 24 25  1  1
 26 25  1  1
 26 27  1  0
 27 28  1  0
 28 29  1  6
 28 30  1  0
 30 31  1  0
 31 32  1  0
 32 33  1  1
 31 34  1  6
 34 35  1  0
 34 36  1  0
 24 37  1  0
 37 38  1  6
 37 39  1  0
 37 40  1  0
 40 41  1  0
 41 42  1  1
 41 43  1  0
 41 44  1  0
 44 45  2  0
 44 46  1  0
 46 47  1  1
 46 48  1  0
 48 49  1  1
 48 50  1  0
 50 51  1  6
 50 52  1  0
 50  3  1  0
 21 11  1  0
 32 26  1  0
M  END
$$$$
