
     RDKit          3D

 52 54  0  0  0  0  0  0  0  0999 V2000
  182.9198  163.4256  142.6105 C   0  0  0  0  0  0  0  0  0  0  0  0
  184.4023  163.4956  142.5146 C   0  0  0  0  0  0  0  0  0  0  0  0
  184.9986  162.8246  141.2964 C   0  0  1  0  0  0  0  0  0  0  0  0
  184.1011  162.6915  140.3145 O   0  0  0  0  0  0  0  0  0  0  0  0
  182.9758  162.1752  139.8619 C   0  0  0  0  0  0  0  0  0  0  0  0
  182.0431  161.5170  140.4063 O   0  0  0  0  0  0  0  0  0  0  0  0
  182.7101  162.3942  138.3830 C   0  0  2  0  0  0  0  0  0  0  0  0
  181.2466  162.7272  138.2686 C   0  0  0  0  0  0  0  0  0  0  0  0
  183.1061  161.1492  137.5646 C   0  0  1  0  0  0  0  0  0  0  0  0
  181.9083  160.5459  137.2206 O   0  0  0  0  0  0  0  0  0  0  0  0
  181.9717  159.6039  136.2306 C   0  0  1  0  0  0  0  0  0  0  0  0
  181.2540  158.3222  136.4501 C   0  0  0  0  0  0  0  0  0  0  0  0
  179.7729  158.3524  136.4104 C   0  0  1  0  0  0  0  0  0  0  0  0
  179.3486  156.9941  135.7906 C   0  0  0  0  0  0  0  0  0  0  0  0
  179.1276  158.4316  137.6296 O   0  0  0  0  0  0  0  0  0  0  0  0
  177.7690  158.3521  137.5524 C   0  0  0  0  0  0  0  0  0  0  0  0
  179.1974  159.3818  135.4545 C   0  0  1  0  0  0  0  0  0  0  0  0
  177.8687  159.6208  135.8104 O   0  0  0  0  0  0  0  0  0  0  0  0
  180.0395  160.6112  135.5062 C   0  0  2  0  0  0  0  0  0  0  0  0
  179.5609  161.6638  134.5627 C   0  0  0  0  0  0  0  0  0  0  0  0
  181.3293  160.2167  135.1153 O   0  0  0  0  0  0  0  0  0  0  0  0
  183.9080  161.5962  136.3757 C   0  0  2  0  0  0  0  0  0  0  0  0
  182.8896  162.2423  135.4463 C   0  0  0  0  0  0  0  0  0  0  0  0
  184.7242  160.6234  135.6418 C   0  0  1  0  0  0  0  0  0  0  0  0
  185.6082  161.3055  134.8016 O   0  0  0  0  0  0  0  0  0  0  0  0
  185.9171  160.7591  133.6003 C   0  0  2  0  0  0  0  0  0  0  0  0
  187.3187  160.8760  133.3394 O   0  0  0  0  0  0  0  0  0  0  0  0
  187.6478  159.7330  132.6134 C   0  0  2  0  0  0  0  0  0  0  0  0
  189.0751  159.7619  132.1313 C   0  0  0  0  0  0  0  0  0  0  0  0
  186.7406  159.6127  131.4015 C   0  0  0  0  0  0  0  0  0  0  0  0
  186.0170  160.9065  131.1395 C   0  0  1  0  0  0  0  0  0  0  0  0
  185.2822  161.3626  132.3810 C   0  0  1  0  0  0  0  0  0  0  0  0
  183.9355  161.0439  132.3084 O   0  0  0  0  0  0  0  0  0  0  0  0
  187.0179  161.8959  130.7566 N   0  0  0  0  0  0  0  0  0  0  0  0
  187.5257  162.5936  131.9251 C   0  0  0  0  0  0  0  0  0  0  0  0
  186.3389  162.9022  129.9289 C   0  0  0  0  0  0  0  0  0  0  0  0
  185.6204  159.7031  136.4443 C   0  0  2  0  0  0  0  0  0  0  0  0
  185.9967  158.5687  135.4550 C   0  0  0  0  0  0  0  0  0  0  0  0
  184.9016  159.0684  137.4017 O   0  0  0  0  0  0  0  0  0  0  0  0
  186.9061  160.3084  136.8515 C   0  0  0  0  0  0  0  0  0  0  0  0
  187.2967  160.3008  138.2848 C   0  0  2  0  0  0  0  0  0  0  0  0
  187.9007  159.0483  138.7969 C   0  0  0  0  0  0  0  0  0  0  0  0
  186.1942  160.6271  139.0456 F   0  0  0  0  0  0  0  0  0  0  0  0
  188.2718  161.4138  138.6095 C   0  0  0  0  0  0  0  0  0  0  0  0
  189.4597  161.1244  138.4155 O   0  0  0  0  0  0  0  0  0  0  0  0
  187.8446  162.7471  139.1191 C   0  0  2  0  0  0  0  0  0  0  0  0
  189.0367  163.6744  138.8997 C   0  0  0  0  0  0  0  0  0  0  0  0
  187.3861  162.7348  140.5317 C   0  0  1  0  0  0  0  0  0  0  0  0
  188.4491  163.1960  141.3078 O   0  0  0  0  0  0  0  0  0  0  0  0
  186.1927  163.6219  140.8349 C   0  0  1  0  0  0  0  0  0  0  0  0
  185.8714  164.5372  139.6781 C   0  0  0  0  0  0  0  0  0  0  0  0
  186.5294  164.4888  141.9029 O   0  0  0  0  0  0  0  0  0  0  0  0
  1  2  1  0
  3  2  1  1
  3  4  1  0
  4  5  1  0
  5  6  2  0
  5  7  1  0
  7  8  1  1
  7  9  1  0
  9 10  1  6
 11 10  1  1
 11 12  1  0
 12 13  1  0
 13 14  1  6
 13 15  1  0
 15 16  1  0
 13 17  1  0
 17 18  1  1
 17 19  1  0
 19 20  1  6
 19 21  1  0
  9 22  1  0
 22 23  1  6
 22 24  1  0
 24 25  1  6
 26 25  1  1
 26 27  1  0
 27 28  1  0
 28 29  1  6
 28 30  1  0
 30 31  1  0
 31 32  1  0
 32 33  1  6
 31 34  1  1
 34 35  1  0
 34 36  1  0
 24 37  1  0
 37 38  1  6
 37 39  1  0
 37 40  1  0
 40 41  1  0
 41 42  1  1
 41 43  1  0
 41 44  1  0
 44 45  2  0
 44 46  1  0
 46 47  1  1
 46 48  1  0
 48 49  1  1
 48 50  1  0
 50 51  1  6
 50 52  1  0
 50  3  1  0
 21 11  1  0
 32 26  1  0
M  END
$$$$
