
     RDKit          3D

 52 54  0  0  0  0  0  0  0  0999 V2000
  132.8215  142.2086  130.7315 C   0  0  0  0  0  0  0  0  0  0  0  0
  133.1964  140.9797  129.9823 C   0  0  0  0  0  0  0  0  0  0  0  0
  132.7686  139.6796  130.6275 C   0  0  1  0  0  0  0  0  0  0  0  0
  131.4520  139.6500  130.8581 O   0  0  0  0  0  0  0  0  0  0  0  0
  130.3929  140.1316  131.4777 C   0  0  0  0  0  0  0  0  0  0  0  0
  130.2001  141.1517  132.2001 O   0  0  0  0  0  0  0  0  0  0  0  0
  129.1208  139.3186  131.3151 C   0  0  2  0  0  0  0  0  0  0  0  0
  128.0130  140.3170  131.1098 C   0  0  0  0  0  0  0  0  0  0  0  0
  128.8892  138.4118  132.5403 C   0  0  1  0  0  0  0  0  0  0  0  0
  127.8659  139.0166  133.2502 O   0  0  0  0  0  0  0  0  0  0  0  0
  128.0726  139.1656  134.5943 C   0  0  1  0  0  0  0  0  0  0  0  0
  128.5370  140.4906  135.0788 C   0  0  0  0  0  0  0  0  0  0  0  0
  127.5671  141.6105  135.0420 C   0  0  1  0  0  0  0  0  0  0  0  0
  127.8959  142.4825  136.2833 C   0  0  0  0  0  0  0  0  0  0  0  0
  127.6467  142.4560  133.9522 O   0  0  0  0  0  0  0  0  0  0  0  0
  128.4591  143.5350  134.1363 C   0  0  0  0  0  0  0  0  0  0  0  0
  126.1252  141.1917  135.2656 C   0  0  1  0  0  0  0  0  0  0  0  0
  125.2918  142.2054  134.7891 O   0  0  0  0  0  0  0  0  0  0  0  0
  125.8920  139.8850  134.5864 C   0  0  2  0  0  0  0  0  0  0  0  0
  124.5017  139.3823  134.7905 C   0  0  0  0  0  0  0  0  0  0  0  0
  126.7849  138.9749  135.1753 O   0  0  0  0  0  0  0  0  0  0  0  0
  128.5401  137.0342  132.0538 C   0  0  2  0  0  0  0  0  0  0  0  0
  127.1212  137.1645  131.5171 C   0  0  0  0  0  0  0  0  0  0  0  0
  128.6368  135.8933  132.9702 C   0  0  1  0  0  0  0  0  0  0  0  0
  128.5797  134.7065  132.2348 O   0  0  0  0  0  0  0  0  0  0  0  0
  129.2950  134.6167  131.0871 C   0  0  2  0  0  0  0  0  0  0  0  0
  128.6281  135.3019  130.0232 O   0  0  0  0  0  0  0  0  0  0  0  0
  129.6502  135.8156  129.2274 C   0  0  2  0  0  0  0  0  0  0  0  0
  129.1197  136.4573  127.9715 C   0  0  0  0  0  0  0  0  0  0  0  0
  130.6005  134.7014  128.8253 C   0  0  0  0  0  0  0  0  0  0  0  0
  129.9884  133.3510  129.0860 C   0  0  1  0  0  0  0  0  0  0  0  0
  129.5336  133.2451  130.5251 C   0  0  1  0  0  0  0  0  0  0  0  0
  130.4543  132.5448  131.2884 O   0  0  0  0  0  0  0  0  0  0  0  0
  128.8483  133.2084  128.1875 N   0  0  0  0  0  0  0  0  0  0  0  0
  129.2915  133.0662  126.8115 C   0  0  0  0  0  0  0  0  0  0  0  0
  128.0835  134.4612  128.2549 C   0  0  0  0  0  0  0  0  0  0  0  0
  129.9006  135.7519  133.7933 C   0  0  2  0  0  0  0  0  0  0  0  0
  129.5232  134.7471  134.9136 C   0  0  0  0  0  0  0  0  0  0  0  0
  130.1522  136.9016  134.4648 O   0  0  0  0  0  0  0  0  0  0  0  0
  131.0297  135.1269  133.0724 C   0  0  0  0  0  0  0  0  0  0  0  0
  132.3384  135.8277  133.0148 C   0  0  2  0  0  0  0  0  0  0  0  0
  133.2161  135.6835  134.2000 C   0  0  0  0  0  0  0  0  0  0  0  0
  132.1136  137.1650  132.7659 F   0  0  0  0  0  0  0  0  0  0  0  0
  133.1577  135.3947  131.8163 C   0  0  0  0  0  0  0  0  0  0  0  0
  133.8498  134.3865  132.0084 O   0  0  0  0  0  0  0  0  0  0  0  0
  133.1369  136.1161  130.5128 C   0  0  2  0  0  0  0  0  0  0  0  0
  133.7230  135.1436  129.4932 C   0  0  0  0  0  0  0  0  0  0  0  0
  133.8508  137.4184  130.5322 C   0  0  1  0  0  0  0  0  0  0  0  0
  135.1065  137.2017  129.9654 O   0  0  0  0  0  0  0  0  0  0  0  0
  133.1899  138.5332  129.7426 C   0  0  1  0  0  0  0  0  0  0  0  0
  132.0619  138.0140  128.8839 C   0  0  0  0  0  0  0  0  0  0  0  0
  134.1313  139.0625  128.8266 O   0  0  0  0  0  0  0  0  0  0  0  0
  1  2  1  0
  3  2  1  6
  3  4  1  0
  4  5  1  0
  5  6  2  0
  5  7  1  0
  7  8  1  1
  7  9  1  0
  9 10  1  6
 11 10  1  6
 11 12  1  0
 12 13  1  0
 13 14  1  1
 13 15  1  0
 15 16  1  0
 13 17  1  0
 17 18  1  6
 17 19  1  0
 19 20  1  1
 19 21  1  0
  9 22  1  0
 22 23  1  1
 22 24  1  0
 24 25  1  6
 26 25  1  1
 26 27  1  0
 27 28  1  0
 28 29  1  6
 28 30  1  0
 30 31  1  0
 31 32  1  0
 32 33  1  1
 31 34  1  6
 34 35  1  0
 34 36  1  0
 24 37  1  0
 37 38  1  1
 37 39  1  0
 37 40  1  0
 40 41  1  0
 41 42  1  1
 41 43  1  0
 41 44  1  0
 44 45  2  0
 44 46  1  0
 46 47  1  6
 46 48  1  0
 48 49  1  6
 48 50  1  0
 50 51  1  6
 50 52  1  0
 50  3  1  0
 21 11  1  0
 32 26  1  0
M  END
$$$$
