
     RDKit          3D

 52 54  0  0  0  0  0  0  0  0999 V2000
  192.0615  158.1730  106.9120 C   0  0  0  0  0  0  0  0  0  0  0  0
  190.8465  158.6550  107.6215 C   0  0  0  0  0  0  0  0  0  0  0  0
  191.1120  159.4358  108.8902 C   0  0  1  0  0  0  0  0  0  0  0  0
  190.5633  160.6542  108.8466 O   0  0  0  0  0  0  0  0  0  0  0  0
  190.4922  161.8528  108.3026 C   0  0  0  0  0  0  0  0  0  0  0  0
  191.0040  162.3665  107.2663 O   0  0  0  0  0  0  0  0  0  0  0  0
  189.6261  162.8530  109.0476 C   0  0  2  0  0  0  0  0  0  0  0  0
  188.8564  163.6026  107.9933 C   0  0  0  0  0  0  0  0  0  0  0  0
  190.4902  163.7776  109.9282 C   0  0  1  0  0  0  0  0  0  0  0  0
  190.5166  164.9911  109.2622 O   0  0  0  0  0  0  0  0  0  0  0  0
  190.0166  166.0644  109.9474 C   0  0  1  0  0  0  0  0  0  0  0  0
  190.6351  167.3915  109.6984 C   0  0  0  0  0  0  0  0  0  0  0  0
  190.3767  168.0312  108.3869 C   0  0  1  0  0  0  0  0  0  0  0  0
  190.3111  169.5548  108.6762 C   0  0  0  0  0  0  0  0  0  0  0  0
  191.3525  167.8696  107.4221 O   0  0  0  0  0  0  0  0  0  0  0  0
  191.4475  168.9046  106.5402 C   0  0  0  0  0  0  0  0  0  0  0  0
  189.0131  167.7154  107.7991 C   0  0  1  0  0  0  0  0  0  0  0  0
  189.0479  167.9890  106.4305 O   0  0  0  0  0  0  0  0  0  0  0  0
  188.6781  166.2932  108.0956 C   0  0  2  0  0  0  0  0  0  0  0  0
  187.3300  165.9113  107.5818 C   0  0  0  0  0  0  0  0  0  0  0  0
  188.6694  166.1786  109.4953 O   0  0  0  0  0  0  0  0  0  0  0  0
  189.8617  163.8619  111.2899 C   0  0  2  0  0  0  0  0  0  0  0  0
  188.6243  164.7260  111.0891 C   0  0  0  0  0  0  0  0  0  0  0  0
  190.6494  164.3537  112.4251 C   0  0  1  0  0  0  0  0  0  0  0  0
  189.9830  164.0475  113.6145 O   0  0  0  0  0  0  0  0  0  0  0  0
  189.6940  165.0530  114.4763 C   0  0  2  0  0  0  0  0  0  0  0  0
  190.7459  165.2149  115.4321 O   0  0  0  0  0  0  0  0  0  0  0  0
  190.7799  166.5811  115.7042 C   0  0  2  0  0  0  0  0  0  0  0  0
  191.7506  166.9130  116.8078 C   0  0  0  0  0  0  0  0  0  0  0  0
  189.4012  167.0575  116.1265 C   0  0  0  0  0  0  0  0  0  0  0  0
  188.5112  165.8934  116.4718 C   0  0  1  0  0  0  0  0  0  0  0  0
  188.4666  164.9041  115.3279 C   0  0  1  0  0  0  0  0  0  0  0  0
  187.3135  165.0634  114.5759 O   0  0  0  0  0  0  0  0  0  0  0  0
  189.0654  165.2593  117.6626 N   0  0  0  0  0  0  0  0  0  0  0  0
  188.0960  164.3620  118.2668 C   0  0  0  0  0  0  0  0  0  0  0  0
  189.3198  166.3241  118.6426 C   0  0  0  0  0  0  0  0  0  0  0  0
  192.0365  163.7791  112.6258 C   0  0  2  0  0  0  0  0  0  0  0  0
  192.7298  164.7702  113.5974 C   0  0  0  0  0  0  0  0  0  0  0  0
  192.7584  163.8907  111.4845 O   0  0  0  0  0  0  0  0  0  0  0  0
  192.0600  162.4731  113.3178 C   0  0  0  0  0  0  0  0  0  0  0  0
  192.7619  161.3246  112.6890 C   0  0  2  0  0  0  0  0  0  0  0  0
  194.2320  161.2723  112.8681 C   0  0  0  0  0  0  0  0  0  0  0  0
  192.4591  161.3035  111.3441 F   0  0  0  0  0  0  0  0  0  0  0  0
  192.2206  159.9968  113.1774 C   0  0  0  0  0  0  0  0  0  0  0  0
  192.7459  159.5835  114.2194 O   0  0  0  0  0  0  0  0  0  0  0  0
  191.1461  159.2459  112.4692 C   0  0  2  0  0  0  0  0  0  0  0  0
  190.6101  158.2381  113.4821 C   0  0  0  0  0  0  0  0  0  0  0  0
  191.5911  158.6018  111.2070 C   0  0  1  0  0  0  0  0  0  0  0  0
  191.8220  157.2572  111.4966 O   0  0  0  0  0  0  0  0  0  0  0  0
  190.5912  158.6485  110.0664 C   0  0  1  0  0  0  0  0  0  0  0  0
  189.2364  159.1240  110.5329 C   0  0  0  0  0  0  0  0  0  0  0  0
  190.3731  157.3301  109.5977 O   0  0  0  0  0  0  0  0  0  0  0  0
  1  2  1  0
  3  2  1  6
  3  4  1  0
  4  5  1  0
  5  6  2  0
  5  7  1  0
  7  8  1  6
  7  9  1  0
  9 10  1  6
 11 10  1  6
 11 12  1  0
 12 13  1  0
 13 14  1  1
 13 15  1  0
 15 16  1  0
 13 17  1  0
 17 18  1  6
 17 19  1  0
 19 20  1  1
 19 21  1  0
  9 22  1  0
 22 23  1  6
 22 24  1  0
 24 25  1  1
 26 25  1  1
 26 27  1  0
 27 28  1  0
 28 29  1  1
 28 30  1  0
 30 31  1  0
 31 32  1  0
 32 33  1  6
 31 34  1  1
 34 35  1  0
 34 36  1  0
 24 37  1  0
 37 38  1  1
 37 39  1  0
 37 40  1  0
 40 41  1  0
 41 42  1  6
 41 43  1  0
 41 44  1  0
 44 45  2  0
 44 46  1  0
 46 47  1  1
 46 48  1  0
 48 49  1  1
 48 50  1  0
 50 51  1  1
 50 52  1  0
 50  3  1  0
 21 11  1  0
 32 26  1  0
M  END
$$$$
