
     RDKit          3D

 52 54  0  0  0  0  0  0  0  0999 V2000
  183.8588  157.6564  143.9901 C   0  0  0  0  0  0  0  0  0  0  0  0
  182.4285  157.8572  143.6351 C   0  0  0  0  0  0  0  0  0  0  0  0
  182.1422  159.0826  142.7948 C   0  0  1  0  0  0  0  0  0  0  0  0
  183.0580  159.2512  141.8355 O   0  0  0  0  0  0  0  0  0  0  0  0
  184.3058  159.4841  141.4800 C   0  0  0  0  0  0  0  0  0  0  0  0
  185.3936  159.5441  142.1224 O   0  0  0  0  0  0  0  0  0  0  0  0
  184.5214  159.7399  139.9989 C   0  0  2  0  0  0  0  0  0  0  0  0
  185.7776  158.9982  139.6277 C   0  0  0  0  0  0  0  0  0  0  0  0
  184.6122  161.2518  139.7112 C   0  0  1  0  0  0  0  0  0  0  0  0
  185.9552  161.4963  139.4799 O   0  0  0  0  0  0  0  0  0  0  0  0
  186.2785  162.7717  139.1052 C   0  0  1  0  0  0  0  0  0  0  0  0
  187.1270  163.5683  140.0280 C   0  0  0  0  0  0  0  0  0  0  0  0
  188.5513  163.1794  140.1546 C   0  0  1  0  0  0  0  0  0  0  0  0
  189.3252  164.5083  140.3651 C   0  0  0  0  0  0  0  0  0  0  0  0
  188.8751  162.3768  141.2318 O   0  0  0  0  0  0  0  0  0  0  0  0
  189.3407  163.0556  142.3183 C   0  0  0  0  0  0  0  0  0  0  0  0
  189.1547  162.6064  138.8849 C   0  0  1  0  0  0  0  0  0  0  0  0
  190.3070  161.8955  139.2252 O   0  0  0  0  0  0  0  0  0  0  0  0
  188.1329  161.7596  138.2054 C   0  0  2  0  0  0  0  0  0  0  0  0
  188.6366  161.1862  136.9229 C   0  0  0  0  0  0  0  0  0  0  0  0
  187.0515  162.6085  137.9186 O   0  0  0  0  0  0  0  0  0  0  0  0
  183.7401  161.5647  138.5289 C   0  0  2  0  0  0  0  0  0  0  0  0
  184.4939  160.9963  137.3343 C   0  0  0  0  0  0  0  0  0  0  0  0
  183.3395  162.9511  138.2675 C   0  0  1  0  0  0  0  0  0  0  0  0
  182.2976  162.9611  137.3363 O   0  0  0  0  0  0  0  0  0  0  0  0
  182.3857  162.1525  136.2521 C   0  0  2  0  0  0  0  0  0  0  0  0
  181.9703  162.8457  135.0719 O   0  0  0  0  0  0  0  0  0  0  0  0
  182.7619  162.3257  134.0498 C   0  0  2  0  0  0  0  0  0  0  0  0
  182.3561  162.8524  132.6977 C   0  0  0  0  0  0  0  0  0  0  0  0
  182.6425  160.8120  134.0242 C   0  0  0  0  0  0  0  0  0  0  0  0
  181.4650  160.3505  134.8407 C   0  0  1  0  0  0  0  0  0  0  0  0
  181.5423  160.9104  136.2441 C   0  0  1  0  0  0  0  0  0  0  0  0
  182.0340  159.9660  137.1311 O   0  0  0  0  0  0  0  0  0  0  0  0
  180.2586  160.8290  134.1750 N   0  0  0  0  0  0  0  0  0  0  0  0
  179.0892  160.6100  135.0083 C   0  0  0  0  0  0  0  0  0  0  0  0
  180.0744  160.0098  132.9692 C   0  0  0  0  0  0  0  0  0  0  0  0
  182.8000  163.7624  139.4273 C   0  0  2  0  0  0  0  0  0  0  0  0
  182.8755  165.2334  138.9397 C   0  0  0  0  0  0  0  0  0  0  0  0
  183.6671  163.7244  140.4678 O   0  0  0  0  0  0  0  0  0  0  0  0
  181.3722  163.5228  139.7257 C   0  0  0  0  0  0  0  0  0  0  0  0
  180.9667  163.1418  141.1033 C   0  0  2  0  0  0  0  0  0  0  0  0
  180.8260  164.2484  142.0787 C   0  0  0  0  0  0  0  0  0  0  0  0
  181.8615  162.2108  141.5863 F   0  0  0  0  0  0  0  0  0  0  0  0
  179.6538  162.3862  141.1161 C   0  0  0  0  0  0  0  0  0  0  0  0
  178.6494  163.1087  141.1568 O   0  0  0  0  0  0  0  0  0  0  0  0
  179.5704  160.8990  141.0821 C   0  0  2  0  0  0  0  0  0  0  0  0
  178.1358  160.5750  140.6750 C   0  0  0  0  0  0  0  0  0  0  0  0
  179.9620  160.2433  142.3559 C   0  0  1  0  0  0  0  0  0  0  0  0
  178.7822  159.9200  143.0257 O   0  0  0  0  0  0  0  0  0  0  0  0
  180.7584  158.9600  142.2077 C   0  0  1  0  0  0  0  0  0  0  0  0
  180.7721  158.4753  140.7780 C   0  0  0  0  0  0  0  0  0  0  0  0
  180.1073  157.9334  142.9342 O   0  0  0  0  0  0  0  0  0  0  0  0
  1  2  1  0
  3  2  1  6
  3  4  1  0
  4  5  1  0
  5  6  2  0
  5  7  1  0
  7  8  1  1
  7  9  1  0
  9 10  1  6
 11 10  1  1
 11 12  1  0
 12 13  1  0
 13 14  1  1
 13 15  1  0
 15 16  1  0
 13 17  1  0
 17 18  1  1
 17 19  1  0
 19 20  1  6
 19 21  1  0
  9 22  1  0
 22 23  1  6
 22 24  1  0
 24 25  1  6
 26 25  1  1
 26 27  1  0
 27 28  1  0
 28 29  1  6
 28 30  1  0
 30 31  1  0
 31 32  1  0
 32 33  1  1
 31 34  1  6
 34 35  1  0
 34 36  1  0
 24 37  1  0
 37 38  1  6
 37 39  1  0
 37 40  1  0
 40 41  1  0
 41 42  1  1
 41 43  1  0
 41 44  1  0
 44 45  2  0
 44 46  1  0
 46 47  1  1
 46 48  1  0
 48 49  1  6
 48 50  1  0
 50 51  1  6
 50 52  1  0
 50  3  1  0
 21 11  1  0
 32 26  1  0
M  END
$$$$
