
     RDKit          3D

 52 54  0  0  0  0  0  0  0  0999 V2000
  142.8152  169.9793  126.9936 C   0  0  0  0  0  0  0  0  0  0  0  0
  143.3131  171.2059  127.6714 C   0  0  0  0  0  0  0  0  0  0  0  0
  144.2034  170.9599  128.8700 C   0  0  1  0  0  0  0  0  0  0  0  0
  145.2364  170.1675  128.5661 O   0  0  0  0  0  0  0  0  0  0  0  0
  145.6969  168.9966  128.1729 C   0  0  0  0  0  0  0  0  0  0  0  0
  145.1418  167.9534  127.7223 O   0  0  0  0  0  0  0  0  0  0  0  0
  147.2028  168.8268  128.2678 C   0  0  2  0  0  0  0  0  0  0  0  0
  147.6198  168.1084  127.0124 C   0  0  0  0  0  0  0  0  0  0  0  0
  147.5887  168.0630  129.5502 C   0  0  1  0  0  0  0  0  0  0  0  0
  147.9333  166.7915  129.1246 O   0  0  0  0  0  0  0  0  0  0  0  0
  147.5049  166.4389  127.8741 C   0  0  1  0  0  0  0  0  0  0  0  0
  148.4193  166.6973  126.7326 C   0  0  0  0  0  0  0  0  0  0  0  0
  149.6311  165.8514  126.6223 C   0  0  1  0  0  0  0  0  0  0  0  0
  149.8699  165.6687  125.0994 C   0  0  0  0  0  0  0  0  0  0  0  0
  150.8006  166.3853  127.1286 O   0  0  0  0  0  0  0  0  0  0  0  0
  151.9187  166.0643  126.4179 C   0  0  0  0  0  0  0  0  0  0  0  0
  149.4482  164.4335  127.1326 C   0  0  1  0  0  0  0  0  0  0  0  0
  150.7087  163.8882  127.3835 O   0  0  0  0  0  0  0  0  0  0  0  0
  148.5810  164.4658  128.3450 C   0  0  2  0  0  0  0  0  0  0  0  0
  148.3200  163.1010  128.8894 C   0  0  0  0  0  0  0  0  0  0  0  0
  147.3585  165.0222  127.9348 O   0  0  0  0  0  0  0  0  0  0  0  0
  148.7201  168.7925  130.2166 C   0  0  2  0  0  0  0  0  0  0  0  0
  149.9301  168.5110  129.3363 C   0  0  0  0  0  0  0  0  0  0  0  0
  149.0356  168.5165  131.6220 C   0  0  1  0  0  0  0  0  0  0  0  0
  149.8859  169.5137  132.1070 O   0  0  0  0  0  0  0  0  0  0  0  0
  150.7119  169.2191  133.1405 C   0  0  2  0  0  0  0  0  0  0  0  0
  150.2281  169.8021  134.3538 O   0  0  0  0  0  0  0  0  0  0  0  0
  150.5889  168.9035  135.3557 C   0  0  2  0  0  0  0  0  0  0  0  0
  150.2742  169.4342  136.7304 C   0  0  0  0  0  0  0  0  0  0  0  0
  152.0800  168.6241  135.2855 C   0  0  0  0  0  0  0  0  0  0  0  0
  152.7784  169.6396  134.4211 C   0  0  1  0  0  0  0  0  0  0  0  0
  152.1284  169.7094  133.0565 C   0  0  1  0  0  0  0  0  0  0  0  0
  152.8533  168.9875  132.1218 O   0  0  0  0  0  0  0  0  0  0  0  0
  152.6740  170.9298  135.0934 N   0  0  0  0  0  0  0  0  0  0  0  0
  152.0790  171.9218  134.2149 C   0  0  0  0  0  0  0  0  0  0  0  0
  154.0426  171.3846  135.3743 C   0  0  0  0  0  0  0  0  0  0  0  0
  147.8910  168.4989  132.6140 C   0  0  2  0  0  0  0  0  0  0  0  0
  148.4722  167.7867  133.8639 C   0  0  0  0  0  0  0  0  0  0  0  0
  146.9172  167.6578  132.1893 O   0  0  0  0  0  0  0  0  0  0  0  0
  147.4736  169.8363  133.0855 C   0  0  0  0  0  0  0  0  0  0  0  0
  146.0490  170.2413  132.9685 C   0  0  2  0  0  0  0  0  0  0  0  0
  145.1355  169.7523  134.0278 C   0  0  0  0  0  0  0  0  0  0  0  0
  145.5774  169.8487  131.7339 F   0  0  0  0  0  0  0  0  0  0  0  0
  145.8927  171.7475  132.9258 C   0  0  0  0  0  0  0  0  0  0  0  0
  145.8221  172.2851  134.0387 O   0  0  0  0  0  0  0  0  0  0  0  0
  145.8291  172.5234  131.6555 C   0  0  2  0  0  0  0  0  0  0  0  0
  146.1082  173.9730  132.0425 C   0  0  0  0  0  0  0  0  0  0  0  0
  144.5500  172.3683  130.9168 C   0  0  1  0  0  0  0  0  0  0  0  0
  143.7761  173.4924  131.2041 O   0  0  0  0  0  0  0  0  0  0  0  0
  144.6777  172.2871  129.4068 C   0  0  1  0  0  0  0  0  0  0  0  0
  146.0721  172.6378  128.9465 C   0  0  0  0  0  0  0  0  0  0  0  0
  143.8434  173.2727  128.8255 O   0  0  0  0  0  0  0  0  0  0  0  0
  1  2  1  0
  3  2  1  6
  3  4  1  0
  4  5  1  0
  5  6  2  0
  5  7  1  0
  7  8  1  6
  7  9  1  0
  9 10  1  6
 11 10  1  1
 11 12  1  0
 12 13  1  0
 13 14  1  6
 13 15  1  0
 15 16  1  0
 13 17  1  0
 17 18  1  1
 17 19  1  0
 19 20  1  6
 19 21  1  0
  9 22  1  0
 22 23  1  6
 22 24  1  0
 24 25  1  1
 26 25  1  6
 26 27  1  0
 27 28  1  0
 28 29  1  1
 28 30  1  0
 30 31  1  0
 31 32  1  0
 32 33  1  6
 31 34  1  1
 34 35  1  0
 34 36  1  0
 24 37  1  0
 37 38  1  1
 37 39  1  0
 37 40  1  0
 40 41  1  0
 41 42  1  1
 41 43  1  0
 41 44  1  0
 44 45  2  0
 44 46  1  0
 46 47  1  1
 46 48  1  0
 48 49  1  6
 48 50  1  0
 50 51  1  1
 50 52  1  0
 50  3  1  0
 21 11  1  0
 32 26  1  0
M  END
$$$$
