
     RDKit          3D

 52 54  0  0  0  0  0  0  0  0999 V2000
  107.3233  160.7733  154.4417 C   0  0  0  0  0  0  0  0  0  0  0  0
  106.1539  161.1485  153.6029 C   0  0  0  0  0  0  0  0  0  0  0  0
  105.1516  162.0635  154.2722 C   0  0  1  0  0  0  0  0  0  0  0  0
  105.7343  163.1608  154.7657 O   0  0  0  0  0  0  0  0  0  0  0  0
  106.5810  163.7210  155.6066 C   0  0  0  0  0  0  0  0  0  0  0  0
  107.4581  163.2578  156.3913 O   0  0  0  0  0  0  0  0  0  0  0  0
  106.5186  165.2365  155.6768 C   0  0  2  0  0  0  0  0  0  0  0  0
  107.9465  165.7086  155.7402 C   0  0  0  0  0  0  0  0  0  0  0  0
  105.6825  165.6953  156.8882 C   0  0  1  0  0  0  0  0  0  0  0  0
  106.6060  166.1487  157.8147 O   0  0  0  0  0  0  0  0  0  0  0  0
  107.3662  165.1893  158.4255 C   0  0  1  0  0  0  0  0  0  0  0  0
  108.7596  165.5451  158.7966 C   0  0  0  0  0  0  0  0  0  0  0  0
  108.9470  166.4946  159.9190 C   0  0  1  0  0  0  0  0  0  0  0  0
  110.2436  166.0340  160.6374 C   0  0  0  0  0  0  0  0  0  0  0  0
  109.1521  167.8173  159.5764 O   0  0  0  0  0  0  0  0  0  0  0  0
  110.4570  168.2103  159.6091 C   0  0  0  0  0  0  0  0  0  0  0  0
  107.8828  166.4002  160.9974 C   0  0  1  0  0  0  0  0  0  0  0  0
  107.9033  167.5805  161.7428 O   0  0  0  0  0  0  0  0  0  0  0  0
  106.5630  166.1479  160.3513 C   0  0  2  0  0  0  0  0  0  0  0  0
  105.4633  166.0039  161.3500 C   0  0  0  0  0  0  0  0  0  0  0  0
  106.6948  164.9343  159.6569 O   0  0  0  0  0  0  0  0  0  0  0  0
  104.7279  166.7613  156.4315 C   0  0  2  0  0  0  0  0  0  0  0  0
  105.6019  167.9867  156.2016 C   0  0  0  0  0  0  0  0  0  0  0  0
  103.5718  167.1076  157.2649 C   0  0  1  0  0  0  0  0  0  0  0  0
  102.6738  167.8690  156.5123 O   0  0  0  0  0  0  0  0  0  0  0  0
  102.0896  168.9465  157.0908 C   0  0  2  0  0  0  0  0  0  0  0  0
  100.7831  168.6147  157.5694 O   0  0  0  0  0  0  0  0  0  0  0  0
  100.6101  169.3893  158.7147 C   0  0  2  0  0  0  0  0  0  0  0  0
   99.2169  169.2652  159.2752 C   0  0  0  0  0  0  0  0  0  0  0  0
  100.8623  170.8515  158.3914 C   0  0  0  0  0  0  0  0  0  0  0  0
  100.8671  171.0814  156.9037 C   0  0  1  0  0  0  0  0  0  0  0  0
  101.8510  170.1517  156.2278 C   0  0  1  0  0  0  0  0  0  0  0  0
  103.0389  170.8056  155.9421 O   0  0  0  0  0  0  0  0  0  0  0  0
   99.5164  170.8219  156.4182 N   0  0  0  0  0  0  0  0  0  0  0  0
   99.5075  169.7003  155.4951 C   0  0  0  0  0  0  0  0  0  0  0  0
   99.0975  172.0018  155.6493 C   0  0  0  0  0  0  0  0  0  0  0  0
  102.7249  165.9743  157.8063 C   0  0  2  0  0  0  0  0  0  0  0  0
  101.8892  166.6229  158.9412 C   0  0  0  0  0  0  0  0  0  0  0  0
  103.5051  165.0764  158.4552 O   0  0  0  0  0  0  0  0  0  0  0  0
  101.7341  165.4428  156.8467 C   0  0  0  0  0  0  0  0  0  0  0  0
  101.7116  163.9874  156.5493 C   0  0  2  0  0  0  0  0  0  0  0  0
  101.0009  163.1264  157.5237 C   0  0  0  0  0  0  0  0  0  0  0  0
  103.0093  163.5457  156.4025 F   0  0  0  0  0  0  0  0  0  0  0  0
  101.1015  163.6983  155.1932 C   0  0  0  0  0  0  0  0  0  0  0  0
   99.8687  163.5864  155.2014 O   0  0  0  0  0  0  0  0  0  0  0  0
  101.9106  163.5596  153.9497 C   0  0  2  0  0  0  0  0  0  0  0  0
  100.9236  163.7115  152.7957 C   0  0  0  0  0  0  0  0  0  0  0  0
  102.6860  162.2952  153.8721 C   0  0  1  0  0  0  0  0  0  0  0  0
  101.9655  161.4265  153.0527 O   0  0  0  0  0  0  0  0  0  0  0  0
  104.0763  162.4215  153.2771 C   0  0  1  0  0  0  0  0  0  0  0  0
  104.2916  163.7769  152.6481 C   0  0  0  0  0  0  0  0  0  0  0  0
  104.2000  161.5002  152.2087 O   0  0  0  0  0  0  0  0  0  0  0  0
  1  2  1  0
  3  2  1  6
  3  4  1  0
  4  5  1  0
  5  6  2  0
  5  7  1  0
  7  8  1  1
  7  9  1  0
  9 10  1  1
 11 10  1  1
 11 12  1  0
 12 13  1  0
 13 14  1  1
 13 15  1  0
 15 16  1  0
 13 17  1  0
 17 18  1  6
 17 19  1  0
 19 20  1  1
 19 21  1  0
  9 22  1  0
 22 23  1  1
 22 24  1  0
 24 25  1  6
 26 25  1  6
 26 27  1  0
 27 28  1  0
 28 29  1  6
 28 30  1  0
 30 31  1  0
 31 32  1  0
 32 33  1  1
 31 34  1  6
 34 35  1  0
 34 36  1  0
 24 37  1  0
 37 38  1  1
 37 39  1  0
 37 40  1  0
 40 41  1  0
 41 42  1  1
 41 43  1  0
 41 44  1  0
 44 45  2  0
 44 46  1  0
 46 47  1  6
 46 48  1  0
 48 49  1  6
 48 50  1  0
 50 51  1  6
 50 52  1  0
 50  3  1  0
 21 11  1  0
 32 26  1  0
M  END
$$$$
