
     RDKit          3D

 52 54  0  0  0  0  0  0  0  0999 V2000
  182.8696  158.7362  140.7978 C   0  0  0  0  0  0  0  0  0  0  0  0
  182.9914  160.1244  140.2781 C   0  0  0  0  0  0  0  0  0  0  0  0
  184.1474  160.3549  139.3293 C   0  0  1  0  0  0  0  0  0  0  0  0
  184.0121  159.6489  138.2020 O   0  0  0  0  0  0  0  0  0  0  0  0
  183.9376  158.4842  137.5893 C   0  0  0  0  0  0  0  0  0  0  0  0
  183.8406  157.2924  138.0012 O   0  0  0  0  0  0  0  0  0  0  0  0
  183.9748  158.5456  136.0726 C   0  0  2  0  0  0  0  0  0  0  0  0
  182.9501  157.5536  135.5913 C   0  0  0  0  0  0  0  0  0  0  0  0
  185.3922  158.2444  135.5462 C   0  0  1  0  0  0  0  0  0  0  0  0
  185.3231  156.9598  135.0345 O   0  0  0  0  0  0  0  0  0  0  0  0
  185.4004  156.8496  133.6731 C   0  0  1  0  0  0  0  0  0  0  0  0
  186.2405  155.7593  133.1152 C   0  0  0  0  0  0  0  0  0  0  0  0
  185.7436  154.3707  133.2603 C   0  0  1  0  0  0  0  0  0  0  0  0
  186.2033  153.6312  131.9754 C   0  0  0  0  0  0  0  0  0  0  0  0
  186.2529  153.6440  134.3194 O   0  0  0  0  0  0  0  0  0  0  0  0
  186.6038  152.3647  134.0059 C   0  0  0  0  0  0  0  0  0  0  0  0
  184.2311  154.2451  133.2287 C   0  0  1  0  0  0  0  0  0  0  0  0
  183.8778  153.0184  133.7939 O   0  0  0  0  0  0  0  0  0  0  0  0
  183.6359  155.4064  133.9499 C   0  0  2  0  0  0  0  0  0  0  0  0
  182.1439  155.3781  133.9321 C   0  0  0  0  0  0  0  0  0  0  0  0
  184.0672  156.5536  133.2642 O   0  0  0  0  0  0  0  0  0  0  0  0
  185.7458  159.2761  134.5133 C   0  0  2  0  0  0  0  0  0  0  0  0
  184.9020  158.9099  133.3000 C   0  0  0  0  0  0  0  0  0  0  0  0
  187.1470  159.4639  134.1232 C   0  0  1  0  0  0  0  0  0  0  0  0
  187.2700  160.6604  133.4117 O   0  0  0  0  0  0  0  0  0  0  0  0
  188.1143  160.7039  132.3523 C   0  0  2  0  0  0  0  0  0  0  0  0
  189.2551  161.5138  132.6505 O   0  0  0  0  0  0  0  0  0  0  0  0
  190.3094  160.9221  131.9577 C   0  0  2  0  0  0  0  0  0  0  0  0
  191.5738  161.7365  132.0508 C   0  0  0  0  0  0  0  0  0  0  0  0
  189.9459  160.7774  130.4904 C   0  0  0  0  0  0  0  0  0  0  0  0
  188.7435  161.6160  130.1479 C   0  0  1  0  0  0  0  0  0  0  0  0
  187.5915  161.2921  131.0737 C   0  0  1  0  0  0  0  0  0  0  0  0
  186.6866  160.4383  130.4634 O   0  0  0  0  0  0  0  0  0  0  0  0
  189.1303  163.0143  130.2980 N   0  0  0  0  0  0  0  0  0  0  0  0
  187.9719  163.8837  130.1885 C   0  0  0  0  0  0  0  0  0  0  0  0
  190.0112  163.3443  129.1692 C   0  0  0  0  0  0  0  0  0  0  0  0
  188.1781  159.5876  135.2259 C   0  0  2  0  0  0  0  0  0  0  0  0
  189.5366  159.3511  134.5147 C   0  0  0  0  0  0  0  0  0  0  0  0
  188.0768  158.5408  136.0803 O   0  0  0  0  0  0  0  0  0  0  0  0
  188.2773  160.9385  135.8178 C   0  0  0  0  0  0  0  0  0  0  0  0
  188.1466  161.1042  137.2883 C   0  0  2  0  0  0  0  0  0  0  0  0
  189.3605  160.8304  138.0930 C   0  0  0  0  0  0  0  0  0  0  0  0
  187.1093  160.3120  137.7324 F   0  0  0  0  0  0  0  0  0  0  0  0
  187.6885  162.4994  137.6602 C   0  0  0  0  0  0  0  0  0  0  0  0
  188.6049  163.3235  137.7767 O   0  0  0  0  0  0  0  0  0  0  0  0
  186.2573  162.8574  137.8690 C   0  0  2  0  0  0  0  0  0  0  0  0
  186.1968  164.3802  137.7902 C   0  0  0  0  0  0  0  0  0  0  0  0
  185.6814  162.3300  139.1324 C   0  0  1  0  0  0  0  0  0  0  0  0
  185.6892  163.3791  140.0514 O   0  0  0  0  0  0  0  0  0  0  0  0
  184.2517  161.8305  139.0357 C   0  0  1  0  0  0  0  0  0  0  0  0
  183.6175  162.2096  137.7191 C   0  0  0  0  0  0  0  0  0  0  0  0
  183.4721  162.4879  140.0182 O   0  0  0  0  0  0  0  0  0  0  0  0
  1  2  1  0
  3  2  1  1
  3  4  1  0
  4  5  1  0
  5  6  2  0
  5  7  1  0
  7  8  1  6
  7  9  1  0
  9 10  1  6
 11 10  1  1
 11 12  1  0
 12 13  1  0
 13 14  1  6
 13 15  1  0
 15 16  1  0
 13 17  1  0
 17 18  1  1
 17 19  1  0
 19 20  1  6
 19 21  1  0
  9 22  1  0
 22 23  1  6
 22 24  1  0
 24 25  1  1
 26 25  1  1
 26 27  1  0
 27 28  1  0
 28 29  1  6
 28 30  1  0
 30 31  1  0
 31 32  1  0
 32 33  1  6
 31 34  1  1
 34 35  1  0
 34 36  1  0
 24 37  1  0
 37 38  1  6
 37 39  1  0
 37 40  1  0
 40 41  1  0
 41 42  1  1
 41 43  1  0
 41 44  1  0
 44 45  2  0
 44 46  1  0
 46 47  1  1
 46 48  1  0
 48 49  1  1
 48 50  1  0
 50 51  1  6
 50 52  1  0
 50  3  1  0
 21 11  1  0
 32 26  1  0
M  END
$$$$
