
     RDKit          3D

 52 54  0  0  0  0  0  0  0  0999 V2000
  152.9967  167.0093  135.1329 C   0  0  0  0  0  0  0  0  0  0  0  0
  153.5287  167.6994  133.9277 C   0  0  0  0  0  0  0  0  0  0  0  0
  152.9706  167.2096  132.6093 C   0  0  1  0  0  0  0  0  0  0  0  0
  151.6337  167.2189  132.6026 O   0  0  0  0  0  0  0  0  0  0  0  0
  150.4889  166.7733  133.0808 C   0  0  0  0  0  0  0  0  0  0  0  0
  150.1870  166.0444  134.0693 O   0  0  0  0  0  0  0  0  0  0  0  0
  149.2530  167.2020  132.3098 C   0  0  2  0  0  0  0  0  0  0  0  0
  148.2169  167.5488  133.3452 C   0  0  0  0  0  0  0  0  0  0  0  0
  148.7907  166.0868  131.3510 C   0  0  1  0  0  0  0  0  0  0  0  0
  147.6671  165.5397  131.9469 O   0  0  0  0  0  0  0  0  0  0  0  0
  146.7061  165.0650  131.0968 C   0  0  1  0  0  0  0  0  0  0  0  0
  146.3890  163.6152  131.1537 C   0  0  0  0  0  0  0  0  0  0  0  0
  145.6636  163.1203  132.3475 C   0  0  1  0  0  0  0  0  0  0  0  0
  144.7412  161.9847  131.8290 C   0  0  0  0  0  0  0  0  0  0  0  0
  146.4358  162.5565  133.3450 O   0  0  0  0  0  0  0  0  0  0  0  0
  147.6564  162.1149  132.9288 C   0  0  0  0  0  0  0  0  0  0  0  0
  144.6976  164.1251  132.9489 C   0  0  1  0  0  0  0  0  0  0  0  0
  144.4171  163.7377  134.2606 O   0  0  0  0  0  0  0  0  0  0  0  0
  145.3028  165.4851  132.8651 C   0  0  2  0  0  0  0  0  0  0  0  0
  144.3961  166.5411  133.4037 C   0  0  0  0  0  0  0  0  0  0  0  0
  145.5135  165.7343  131.4991 O   0  0  0  0  0  0  0  0  0  0  0  0
  148.5113  166.6990  130.0081 C   0  0  2  0  0  0  0  0  0  0  0  0
  147.2138  167.4721  130.2008 C   0  0  0  0  0  0  0  0  0  0  0  0
  148.4232  165.8409  128.8220 C   0  0  1  0  0  0  0  0  0  0  0  0
  148.4788  166.6358  127.6740 O   0  0  0  0  0  0  0  0  0  0  0  0
  147.6417  167.6973  127.5761 C   0  0  2  0  0  0  0  0  0  0  0  0
  147.1247  167.8099  126.2471 O   0  0  0  0  0  0  0  0  0  0  0  0
  145.8344  168.3125  126.4027 C   0  0  2  0  0  0  0  0  0  0  0  0
  145.1871  168.6260  125.0786 C   0  0  0  0  0  0  0  0  0  0  0  0
  145.8734  169.5885  127.2251 C   0  0  0  0  0  0  0  0  0  0  0  0
  147.2769  170.1242  127.3223 C   0  0  1  0  0  0  0  0  0  0  0  0
  148.2149  169.0585  127.8456 C   0  0  1  0  0  0  0  0  0  0  0  0
  148.4674  169.2367  129.1965 O   0  0  0  0  0  0  0  0  0  0  0  0
  147.6808  170.5342  125.9820 N   0  0  0  0  0  0  0  0  0  0  0  0
  148.8986  171.3244  126.0302 C   0  0  0  0  0  0  0  0  0  0  0  0
  146.6275  171.4173  125.4627 C   0  0  0  0  0  0  0  0  0  0  0  0
  149.5166  164.8147  128.6083 C   0  0  2  0  0  0  0  0  0  0  0  0
  148.9279  163.8334  127.5605 C   0  0  0  0  0  0  0  0  0  0  0  0
  149.6631  164.0499  129.7172 O   0  0  0  0  0  0  0  0  0  0  0  0
  150.7459  165.3547  127.9900 C   0  0  0  0  0  0  0  0  0  0  0  0
  152.0553  165.1417  128.6587 C   0  0  2  0  0  0  0  0  0  0  0  0
  152.7041  163.8284  128.4346 C   0  0  0  0  0  0  0  0  0  0  0  0
  151.9012  165.3563  130.0119 F   0  0  0  0  0  0  0  0  0  0  0  0
  153.0686  166.1962  128.2633 C   0  0  0  0  0  0  0  0  0  0  0  0
  153.6981  165.9370  127.2294 O   0  0  0  0  0  0  0  0  0  0  0  0
  153.2936  167.4430  129.0473 C   0  0  2  0  0  0  0  0  0  0  0  0
  154.0365  168.3915  128.1105 C   0  0  0  0  0  0  0  0  0  0  0  0
  154.0143  167.2288  130.3282 C   0  0  1  0  0  0  0  0  0  0  0  0
  155.3474  167.5736  130.1069 O   0  0  0  0  0  0  0  0  0  0  0  0
  153.5242  168.0640  131.4967 C   0  0  1  0  0  0  0  0  0  0  0  0
  152.5597  169.1358  131.0490 C   0  0  0  0  0  0  0  0  0  0  0  0
  154.6232  168.7689  132.0453 O   0  0  0  0  0  0  0  0  0  0  0  0
  1  2  1  0
  3  2  1  1
  3  4  1  0
  4  5  1  0
  5  6  2  0
  5  7  1  0
  7  8  1  1
  7  9  1  0
  9 10  1  1
 11 10  1  1
 11 12  1  0
 12 13  1  0
 13 14  1  6
 13 15  1  0
 15 16  1  0
 13 17  1  0
 17 18  1  1
 17 19  1  0
 19 20  1  6
 19 21  1  0
  9 22  1  0
 22 23  1  1
 22 24  1  0
 24 25  1  6
 26 25  1  6
 26 27  1  0
 27 28  1  0
 28 29  1  6
 28 30  1  0
 30 31  1  0
 31 32  1  0
 32 33  1  1
 31 34  1  6
 34 35  1  0
 34 36  1  0
 24 37  1  0
 37 38  1  6
 37 39  1  0
 37 40  1  0
 40 41  1  0
 41 42  1  1
 41 43  1  0
 41 44  1  0
 44 45  2  0
 44 46  1  0
 46 47  1  6
 46 48  1  0
 48 49  1  6
 48 50  1  0
 50 51  1  6
 50 52  1  0
 50  3  1  0
 21 11  1  0
 32 26  1  0
M  END
$$$$
