
     RDKit          3D

 52 54  0  0  0  0  0  0  0  0999 V2000
  181.5670  160.0355  133.1230 C   0  0  0  0  0  0  0  0  0  0  0  0
  182.3912  160.4377  134.2939 C   0  0  0  0  0  0  0  0  0  0  0  0
  183.8274  159.9624  134.2610 C   0  0  1  0  0  0  0  0  0  0  0  0
  184.4502  160.3432  133.1409 O   0  0  0  0  0  0  0  0  0  0  0  0
  184.5629  160.2978  131.8283 C   0  0  0  0  0  0  0  0  0  0  0  0
  183.8394  159.8112  130.9122 O   0  0  0  0  0  0  0  0  0  0  0  0
  185.8090  160.9544  131.2612 C   0  0  2  0  0  0  0  0  0  0  0  0
  185.3624  161.7026  130.0338 C   0  0  0  0  0  0  0  0  0  0  0  0
  186.8940  159.9018  130.9583 C   0  0  1  0  0  0  0  0  0  0  0  0
  186.8945  159.7685  129.5802 O   0  0  0  0  0  0  0  0  0  0  0  0
  185.8803  159.0205  129.0479 C   0  0  1  0  0  0  0  0  0  0  0  0
  185.4095  159.3676  127.6826 C   0  0  0  0  0  0  0  0  0  0  0  0
  186.3132  159.0601  126.5490 C   0  0  1  0  0  0  0  0  0  0  0  0
  185.3804  158.6674  125.3722 C   0  0  0  0  0  0  0  0  0  0  0  0
  187.0920  160.1026  126.0846 O   0  0  0  0  0  0  0  0  0  0  0  0
  186.5451  160.7922  125.0437 C   0  0  0  0  0  0  0  0  0  0  0  0
  187.1731  157.8264  126.7564 C   0  0  1  0  0  0  0  0  0  0  0  0
  188.2492  157.8838  125.8687 O   0  0  0  0  0  0  0  0  0  0  0  0
  187.6033  157.7732  128.1830 C   0  0  2  0  0  0  0  0  0  0  0  0
  188.4257  156.5638  128.4803 C   0  0  0  0  0  0  0  0  0  0  0  0
  186.4243  157.7070  128.9432 O   0  0  0  0  0  0  0  0  0  0  0  0
  188.2024  160.3951  131.5070 C   0  0  2  0  0  0  0  0  0  0  0  0
  188.6157  161.5171  130.5643 C   0  0  0  0  0  0  0  0  0  0  0  0
  189.3113  159.4547  131.6988 C   0  0  1  0  0  0  0  0  0  0  0  0
  190.2886  160.0529  132.4986 O   0  0  0  0  0  0  0  0  0  0  0  0
  191.5130  160.2856  131.9658 C   0  0  2  0  0  0  0  0  0  0  0  0
  192.4588  159.3214  132.4369 O   0  0  0  0  0  0  0  0  0  0  0  0
  193.3381  159.1281  131.3734 C   0  0  2  0  0  0  0  0  0  0  0  0
  194.4920  158.2353  131.7500 C   0  0  0  0  0  0  0  0  0  0  0  0
  193.9007  160.4637  130.9199 C   0  0  0  0  0  0  0  0  0  0  0  0
  193.6409  161.5342  131.9459 C   0  0  1  0  0  0  0  0  0  0  0  0
  192.1666  161.6002  132.2800 C   0  0  1  0  0  0  0  0  0  0  0  0
  191.5486  162.6405  131.6045 O   0  0  0  0  0  0  0  0  0  0  0  0
  194.4107  161.1926  133.1367 N   0  0  0  0  0  0  0  0  0  0  0  0
  194.0598  159.8664  133.6140 C   0  0  0  0  0  0  0  0  0  0  0  0
  194.0183  162.1362  134.1924 C   0  0  0  0  0  0  0  0  0  0  0  0
  189.0156  158.1459  132.4018 C   0  0  2  0  0  0  0  0  0  0  0  0
  190.2352  157.2451  132.0730 C   0  0  0  0  0  0  0  0  0  0  0  0
  187.9790  157.5152  131.7988 O   0  0  0  0  0  0  0  0  0  0  0  0
  188.9863  158.2403  133.8767 C   0  0  0  0  0  0  0  0  0  0  0  0
  187.7928  157.7558  134.6171 C   0  0  2  0  0  0  0  0  0  0  0  0
  187.7171  156.2964  134.8627 C   0  0  0  0  0  0  0  0  0  0  0  0
  186.6598  158.1719  133.9508 F   0  0  0  0  0  0  0  0  0  0  0  0
  187.6558  158.4280  135.9677 C   0  0  0  0  0  0  0  0  0  0  0  0
  188.2872  157.8767  136.8787 O   0  0  0  0  0  0  0  0  0  0  0  0
  186.8329  159.6503  136.1886 C   0  0  2  0  0  0  0  0  0  0  0  0
  187.3029  160.2295  137.5201 C   0  0  0  0  0  0  0  0  0  0  0  0
  185.3683  159.4052  136.1604 C   0  0  1  0  0  0  0  0  0  0  0  0
  184.9428  159.3342  137.4867 O   0  0  0  0  0  0  0  0  0  0  0  0
  184.5424  160.4829  135.4826 C   0  0  1  0  0  0  0  0  0  0  0  0
  185.3643  161.7165  135.1963 C   0  0  0  0  0  0  0  0  0  0  0  0
  183.5352  160.9161  136.3789 O   0  0  0  0  0  0  0  0  0  0  0  0
  1  2  1  0
  3  2  1  6
  3  4  1  0
  4  5  1  0
  5  6  2  0
  5  7  1  0
  7  8  1  6
  7  9  1  0
  9 10  1  6
 11 10  1  6
 11 12  1  0
 12 13  1  0
 13 14  1  6
 13 15  1  0
 15 16  1  0
 13 17  1  0
 17 18  1  6
 17 19  1  0
 19 20  1  6
 19 21  1  0
  9 22  1  0
 22 23  1  6
 22 24  1  0
 24 25  1  1
 26 25  1  1
 26 27  1  0
 27 28  1  0
 28 29  1  1
 28 30  1  0
 30 31  1  0
 31 32  1  0
 32 33  1  6
 31 34  1  1
 34 35  1  0
 34 36  1  0
 24 37  1  0
 37 38  1  1
 37 39  1  0
 37 40  1  0
 40 41  1  0
 41 42  1  1
 41 43  1  0
 41 44  1  0
 44 45  2  0
 44 46  1  0
 46 47  1  1
 46 48  1  0
 48 49  1  1
 48 50  1  0
 50 51  1  6
 50 52  1  0
 50  3  1  0
 21 11  1  0
 32 26  1  0
M  END
$$$$
