
     RDKit          3D

 52 54  0  0  0  0  0  0  0  0999 V2000
  168.9200  149.9498  126.5913 C   0  0  0  0  0  0  0  0  0  0  0  0
  168.5591  148.5129  126.4617 C   0  0  0  0  0  0  0  0  0  0  0  0
  169.7154  147.5861  126.1558 C   0  0  1  0  0  0  0  0  0  0  0  0
  170.4211  148.0052  125.1005 O   0  0  0  0  0  0  0  0  0  0  0  0
  170.4925  148.2748  123.8121 C   0  0  0  0  0  0  0  0  0  0  0  0
  169.6286  148.3401  122.8907 O   0  0  0  0  0  0  0  0  0  0  0  0
  171.8861  148.5723  123.2879 C   0  0  2  0  0  0  0  0  0  0  0  0
  171.7341  149.7288  122.3364 C   0  0  0  0  0  0  0  0  0  0  0  0
  172.4986  147.3250  122.6202 C   0  0  1  0  0  0  0  0  0  0  0  0
  172.4323  147.5731  121.2597 O   0  0  0  0  0  0  0  0  0  0  0  0
  171.1809  147.5652  120.7070 C   0  0  1  0  0  0  0  0  0  0  0  0
  170.9174  148.4975  119.5813 C   0  0  0  0  0  0  0  0  0  0  0  0
  171.5602  148.1975  118.2802 C   0  0  1  0  0  0  0  0  0  0  0  0
  170.5424  148.6552  117.2014 C   0  0  0  0  0  0  0  0  0  0  0  0
  172.7341  148.8725  118.0053 O   0  0  0  0  0  0  0  0  0  0  0  0
  172.5576  150.0932  117.4251 C   0  0  0  0  0  0  0  0  0  0  0  0
  171.7401  146.7159  118.0025 C   0  0  1  0  0  0  0  0  0  0  0  0
  172.7088  146.5673  117.0083 O   0  0  0  0  0  0  0  0  0  0  0  0
  172.1067  146.0284  119.2737 C   0  0  2  0  0  0  0  0  0  0  0  0
  172.2656  144.5555  119.0939 C   0  0  0  0  0  0  0  0  0  0  0  0
  171.0419  146.2558  120.1608 O   0  0  0  0  0  0  0  0  0  0  0  0
  173.9034  147.1562  123.1246 C   0  0  2  0  0  0  0  0  0  0  0  0
  174.6920  148.2664  122.4436 C   0  0  0  0  0  0  0  0  0  0  0  0
  174.5860  145.8688  122.9583 C   0  0  1  0  0  0  0  0  0  0  0  0
  175.7255  145.8445  123.7667 O   0  0  0  0  0  0  0  0  0  0  0  0
  176.9196  146.1774  123.2187 C   0  0  2  0  0  0  0  0  0  0  0  0
  177.9332  145.2508  123.6191 O   0  0  0  0  0  0  0  0  0  0  0  0
  178.7950  145.1638  122.5275 C   0  0  2  0  0  0  0  0  0  0  0  0
  180.0096  144.3258  122.8324 C   0  0  0  0  0  0  0  0  0  0  0  0
  179.2648  146.5520  122.1294 C   0  0  0  0  0  0  0  0  0  0  0  0
  178.9678  147.5530  123.2138 C   0  0  1  0  0  0  0  0  0  0  0  0
  177.5013  147.5124  123.5840 C   0  0  1  0  0  0  0  0  0  0  0  0
  176.8050  148.5449  122.9760 O   0  0  0  0  0  0  0  0  0  0  0  0
  179.7869  147.2011  124.3681 N   0  0  0  0  0  0  0  0  0  0  0  0
  179.0213  146.4202  125.3241 C   0  0  0  0  0  0  0  0  0  0  0  0
  180.1471  148.4555  125.0432 C   0  0  0  0  0  0  0  0  0  0  0  0
  173.8341  144.6135  123.3498 C   0  0  2  0  0  0  0  0  0  0  0  0
  174.6277  143.4612  122.6792 C   0  0  0  0  0  0  0  0  0  0  0  0
  172.6299  144.5771  122.7296 O   0  0  0  0  0  0  0  0  0  0  0  0
  173.8604  144.3148  124.7973 C   0  0  0  0  0  0  0  0  0  0  0  0
  172.5817  144.1066  125.5245 C   0  0  2  0  0  0  0  0  0  0  0  0
  171.9724  142.7604  125.4145 C   0  0  0  0  0  0  0  0  0  0  0  0
  171.6761  145.0594  125.1087 F   0  0  0  0  0  0  0  0  0  0  0  0
  172.7211  144.3971  127.0048 C   0  0  0  0  0  0  0  0  0  0  0  0
  173.1138  143.4359  127.6788 O   0  0  0  0  0  0  0  0  0  0  0  0
  172.4139  145.7254  127.6059 C   0  0  2  0  0  0  0  0  0  0  0  0
  173.0820  145.7221  128.9780 C   0  0  0  0  0  0  0  0  0  0  0  0
  170.9628  146.0330  127.6806 C   0  0  1  0  0  0  0  0  0  0  0  0
  170.5579  145.7664  128.9883 O   0  0  0  0  0  0  0  0  0  0  0  0
  170.5878  147.4726  127.3808 C   0  0  1  0  0  0  0  0  0  0  0  0
  171.8054  148.3627  127.3144 C   0  0  0  0  0  0  0  0  0  0  0  0
  169.8249  147.9790  128.4611 O   0  0  0  0  0  0  0  0  0  0  0  0
  1  2  1  0
  3  2  1  1
  3  4  1  0
  4  5  1  0
  5  6  2  0
  5  7  1  0
  7  8  1  6
  7  9  1  0
  9 10  1  6
 11 10  1  6
 11 12  1  0
 12 13  1  0
 13 14  1  6
 13 15  1  0
 15 16  1  0
 13 17  1  0
 17 18  1  6
 17 19  1  0
 19 20  1  6
 19 21  1  0
  9 22  1  0
 22 23  1  6
 22 24  1  0
 24 25  1  1
 26 25  1  1
 26 27  1  0
 27 28  1  0
 28 29  1  1
 28 30  1  0
 30 31  1  0
 31 32  1  0
 32 33  1  6
 31 34  1  1
 34 35  1  0
 34 36  1  0
 24 37  1  0
 37 38  1  6
 37 39  1  0
 37 40  1  0
 40 41  1  0
 41 42  1  1
 41 43  1  0
 41 44  1  0
 44 45  2  0
 44 46  1  0
 46 47  1  1
 46 48  1  0
 48 49  1  1
 48 50  1  0
 50 51  1  6
 50 52  1  0
 50  3  1  0
 21 11  1  0
 32 26  1  0
M  END
$$$$
