
     RDKit          3D

 31 36  0  0  0  0  0  0  0  0999 V2000
  127.8199  148.2271  133.2512 C   0  0  1  0  0  0  0  0  0  0  0  0
  128.7183  147.0751  132.7741 C   0  0  0  0  0  0  0  0  0  0  0  0
  128.0171  145.8868  133.3122 C   0  0  1  0  0  0  0  0  0  0  0  0
  128.7963  144.6307  133.3917 C   0  0  2  0  0  0  0  0  0  0  0  0
  129.0480  144.1454  131.9834 C   0  0  0  0  0  0  0  0  0  0  0  0
  129.7032  142.8162  132.0595 C   0  0  0  0  0  0  0  0  0  0  0  0
  129.4853  141.9739  133.0513 C   0  0  0  0  0  0  0  0  0  0  0  0
  130.1928  140.6647  133.0333 C   0  0  0  0  0  0  0  0  0  0  0  0
  129.1343  139.5878  133.0744 C   0  0  1  0  0  0  0  0  0  0  0  0
  129.2652  138.7376  134.1593 O   0  0  0  0  0  0  0  0  0  0  0  0
  127.7410  140.1586  133.0836 C   0  0  0  0  0  0  0  0  0  0  0  0
  127.5186  141.1504  134.1939 C   0  0  1  0  0  0  0  0  0  0  0  0
  127.4262  140.5367  135.4393 O   0  0  0  0  0  0  0  0  0  0  0  0
  128.5722  142.2567  134.1881 C   0  0  1  0  0  0  0  0  0  0  0  0
  129.3563  142.1048  135.4701 C   0  0  0  0  0  0  0  0  0  0  0  0
  127.9076  143.5942  134.0754 C   0  0  1  0  0  0  0  0  0  0  0  0
  127.4249  144.0824  135.4284 C   0  0  0  0  0  0  0  0  0  0  0  0
  126.6585  145.3680  135.2908 C   0  0  0  0  0  0  0  0  0  0  0  0
  127.5470  146.3901  134.6805 C   0  0  1  0  0  0  0  0  0  0  0  0
  128.7485  146.6503  135.5443 C   0  0  0  0  0  0  0  0  0  0  0  0
  126.8601  147.6445  134.2351 C   0  0  1  0  0  0  0  0  0  0  0  0
  126.7211  148.6918  135.2696 C   0  0  2  0  0  0  0  0  0  0  0  0
  125.2792  149.1548  135.2357 C   0  0  0  0  0  0  0  0  0  0  0  0
  127.6892  149.7830  134.8651 C   0  0  2  0  0  0  0  0  0  0  0  0
  128.6036  150.0746  136.0296 C   0  0  0  0  0  0  0  0  0  0  0  0
  128.5022  151.4939  136.5235 C   0  0  0  0  0  0  0  0  0  0  0  0
  127.0323  151.8568  136.5092 C   0  0  1  0  0  0  0  0  0  0  0  0
  126.8721  153.2687  137.0648 C   0  0  0  0  0  0  0  0  0  0  0  0
  126.5697  151.8225  135.0952 C   0  0  0  0  0  0  0  0  0  0  0  0
  127.1062  150.8706  134.2992 O   0  0  0  0  0  0  0  0  0  0  0  0
  128.5241  149.2055  133.8779 O   0  0  0  0  0  0  0  0  0  0  0  0
  1  2  1  1
  3  2  1  1
  3  4  1  0
  4  5  1  6
  5  6  1  0
  6  7  2  0
  7  8  1  0
  8  9  1  0
  9 10  1  1
  9 11  1  0
 11 12  1  0
 12 13  1  1
 12 14  1  0
 14 15  1  1
 14 16  1  0
 16 17  1  1
 17 18  1  0
 18 19  1  0
 19 20  1  1
 19 21  1  0
 21 22  1  0
 22 23  1  6
 22 24  1  0
 24 25  1  1
 25 26  1  0
 26 27  1  0
 27 28  1  6
 27 29  1  0
 29 30  1  0
 24 31  1  0
 21  1  1  6
 30 24  1  0
 31  1  1  0
 19  3  1  0
 16  4  1  0
 14  7  1  0
M  END
$$$$
