
     RDKit          3D

 31 36  0  0  0  0  0  0  0  0999 V2000
  203.9715  132.3616  134.8393 C   0  0  1  0  0  0  0  0  0  0  0  0
  205.2399  132.5913  134.0025 C   0  0  0  0  0  0  0  0  0  0  0  0
  206.2531  132.8837  135.0423 C   0  0  1  0  0  0  0  0  0  0  0  0
  207.5001  133.5426  134.5929 C   0  0  2  0  0  0  0  0  0  0  0  0
  208.2827  132.5502  133.7655 C   0  0  0  0  0  0  0  0  0  0  0  0
  209.5959  133.1554  133.4323 C   0  0  0  0  0  0  0  0  0  0  0  0
  210.1990  134.0216  134.2240 C   0  0  0  0  0  0  0  0  0  0  0  0
  211.5149  134.5701  133.7972 C   0  0  0  0  0  0  0  0  0  0  0  0
  212.5069  134.2427  134.8883 C   0  0  1  0  0  0  0  0  0  0  0  0
  213.1148  135.3649  135.4252 O   0  0  0  0  0  0  0  0  0  0  0  0
  211.8809  133.4586  136.0108 C   0  0  0  0  0  0  0  0  0  0  0  0
  210.6679  134.1324  136.5945 C   0  0  1  0  0  0  0  0  0  0  0  0
  211.0002  135.2409  137.3670 O   0  0  0  0  0  0  0  0  0  0  0  0
  209.6394  134.4826  135.5203 C   0  0  1  0  0  0  0  0  0  0  0  0
  209.5553  135.9903  135.4867 C   0  0  0  0  0  0  0  0  0  0  0  0
  208.3255  133.8402  135.8427 C   0  0  1  0  0  0  0  0  0  0  0  0
  207.5405  134.6689  136.8423 C   0  0  0  0  0  0  0  0  0  0  0  0
  206.2776  133.9624  137.2481 C   0  0  0  0  0  0  0  0  0  0  0  0
  205.4508  133.7293  136.0362 C   0  0  1  0  0  0  0  0  0  0  0  0
  205.0724  135.0267  135.3795 C   0  0  0  0  0  0  0  0  0  0  0  0
  204.2869  132.8063  136.2290 C   0  0  1  0  0  0  0  0  0  0  0  0
  203.0398  133.4489  136.6958 C   0  0  2  0  0  0  0  0  0  0  0  0
  202.5256  132.6208  137.8553 C   0  0  0  0  0  0  0  0  0  0  0  0
  202.1060  133.4198  135.5047 C   0  0  2  0  0  0  0  0  0  0  0  0
  201.6197  134.8230  135.2367 C   0  0  0  0  0  0  0  0  0  0  0  0
  200.1251  134.9665  135.3547 C   0  0  0  0  0  0  0  0  0  0  0  0
  199.7033  134.1567  136.5625 C   0  0  1  0  0  0  0  0  0  0  0  0
  198.1999  134.3241  136.7624 C   0  0  0  0  0  0  0  0  0  0  0  0
  200.0125  132.7282  136.2823 C   0  0  0  0  0  0  0  0  0  0  0  0
  201.1353  132.4732  135.5740 O   0  0  0  0  0  0  0  0  0  0  0  0
  202.9178  133.0933  134.3914 O   0  0  0  0  0  0  0  0  0  0  0  0
  1  2  1  6
  3  2  1  6
  3  4  1  0
  4  5  1  6
  5  6  1  0
  6  7  2  0
  7  8  1  0
  8  9  1  0
  9 10  1  1
  9 11  1  0
 11 12  1  0
 12 13  1  6
 12 14  1  0
 14 15  1  6
 14 16  1  0
 16 17  1  1
 17 18  1  0
 18 19  1  0
 19 20  1  6
 19 21  1  0
 21 22  1  0
 22 23  1  1
 22 24  1  0
 24 25  1  6
 25 26  1  0
 26 27  1  0
 27 28  1  6
 27 29  1  0
 29 30  1  0
 24 31  1  0
 21  1  1  6
 30 24  1  0
 31  1  1  0
 19  3  1  0
 16  4  1  0
 14  7  1  0
M  END
$$$$
