
     RDKit          3D

 31 36  0  0  0  0  0  0  0  0999 V2000
  129.4268  147.6007  135.9480 C   0  0  1  0  0  0  0  0  0  0  0  0
  129.4055  146.1422  136.4318 C   0  0  0  0  0  0  0  0  0  0  0  0
  129.2796  145.3919  135.1612 C   0  0  1  0  0  0  0  0  0  0  0  0
  128.8309  143.9847  135.2583 C   0  0  2  0  0  0  0  0  0  0  0  0
  129.9373  143.1834  135.9032 C   0  0  0  0  0  0  0  0  0  0  0  0
  129.5523  141.7507  135.8736 C   0  0  0  0  0  0  0  0  0  0  0  0
  128.7941  141.2396  134.9224 C   0  0  0  0  0  0  0  0  0  0  0  0
  128.4656  139.7895  134.9849 C   0  0  0  0  0  0  0  0  0  0  0  0
  128.9478  139.1694  133.6947 C   0  0  1  0  0  0  0  0  0  0  0  0
  127.9379  138.5492  132.9786 O   0  0  0  0  0  0  0  0  0  0  0  0
  129.6196  140.1735  132.7962 C   0  0  0  0  0  0  0  0  0  0  0  0
  128.7584  141.3739  132.5074 C   0  0  1  0  0  0  0  0  0  0  0  0
  127.7173  141.0785  131.6327 O   0  0  0  0  0  0  0  0  0  0  0  0
  128.2477  142.0295  133.7894 C   0  0  1  0  0  0  0  0  0  0  0  0
  126.7463  141.8655  133.7827 C   0  0  0  0  0  0  0  0  0  0  0  0
  128.6694  143.4660  133.8311 C   0  0  1  0  0  0  0  0  0  0  0  0
  127.7240  144.3386  133.0269 C   0  0  0  0  0  0  0  0  0  0  0  0
  128.2171  145.7575  132.9778 C   0  0  0  0  0  0  0  0  0  0  0  0
  128.3147  146.2770  134.3660 C   0  0  1  0  0  0  0  0  0  0  0  0
  126.9739  146.2694  135.0440 C   0  0  0  0  0  0  0  0  0  0  0  0
  129.0376  147.5814  134.5069 C   0  0  1  0  0  0  0  0  0  0  0  0
  128.2017  148.7896  134.3409 C   0  0  2  0  0  0  0  0  0  0  0  0
  128.9350  149.7032  133.3805 C   0  0  0  0  0  0  0  0  0  0  0  0
  128.0808  149.3846  135.7276 C   0  0  2  0  0  0  0  0  0  0  0  0
  126.6177  149.5617  136.0522 C   0  0  0  0  0  0  0  0  0  0  0  0
  126.2348  150.9962  136.3054 C   0  0  0  0  0  0  0  0  0  0  0  0
  126.9649  151.8309  135.2745 C   0  0  1  0  0  0  0  0  0  0  0  0
  126.5568  153.2907  135.4497 C   0  0  0  0  0  0  0  0  0  0  0  0
  128.4247  151.6882  135.5255 C   0  0  0  0  0  0  0  0  0  0  0  0
  128.8583  150.4769  135.9406 O   0  0  0  0  0  0  0  0  0  0  0  0
  128.5350  148.3791  136.6151 O   0  0  0  0  0  0  0  0  0  0  0  0
  1  2  1  1
  3  2  1  1
  3  4  1  0
  4  5  1  1
  5  6  1  0
  6  7  2  0
  7  8  1  0
  8  9  1  0
  9 10  1  6
  9 11  1  0
 11 12  1  0
 12 13  1  6
 12 14  1  0
 14 15  1  6
 14 16  1  0
 16 17  1  1
 17 18  1  0
 18 19  1  0
 19 20  1  1
 19 21  1  0
 21 22  1  0
 22 23  1  6
 22 24  1  0
 24 25  1  1
 25 26  1  0
 26 27  1  0
 27 28  1  1
 27 29  1  0
 29 30  1  0
 24 31  1  0
 21  1  1  1
 30 24  1  0
 31  1  1  0
 19  3  1  0
 16  4  1  0
 14  7  1  0
M  END
$$$$
