
     RDKit          3D

 31 36  0  0  0  0  0  0  0  0999 V2000
  187.2571  160.4627  135.7680 C   0  0  1  0  0  0  0  0  0  0  0  0
  186.0406  159.6189  136.1801 C   0  0  0  0  0  0  0  0  0  0  0  0
  184.9254  160.5817  136.0299 C   0  0  1  0  0  0  0  0  0  0  0  0
  183.6565  160.2459  136.7141 C   0  0  2  0  0  0  0  0  0  0  0  0
  183.0452  159.0569  136.0108 C   0  0  0  0  0  0  0  0  0  0  0  0
  181.7071  158.8048  136.6004 C   0  0  0  0  0  0  0  0  0  0  0  0
  180.9596  159.7699  137.1012 C   0  0  0  0  0  0  0  0  0  0  0  0
  179.6318  159.4110  137.6694 C   0  0  0  0  0  0  0  0  0  0  0  0
  178.5967  160.2183  136.9220 C   0  0  1  0  0  0  0  0  0  0  0  0
  177.8382  161.0291  137.7493 O   0  0  0  0  0  0  0  0  0  0  0  0
  179.2103  161.0769  135.8481 C   0  0  0  0  0  0  0  0  0  0  0  0
  180.2997  161.9777  136.3656 C   0  0  1  0  0  0  0  0  0  0  0  0
  179.7975  163.0344  137.1189 O   0  0  0  0  0  0  0  0  0  0  0  0
  181.3673  161.1978  137.1311 C   0  0  1  0  0  0  0  0  0  0  0  0
  181.3001  161.6762  138.5621 C   0  0  0  0  0  0  0  0  0  0  0  0
  182.7108  161.4274  136.5103 C   0  0  1  0  0  0  0  0  0  0  0  0
  183.3277  162.7236  137.0016 C   0  0  0  0  0  0  0  0  0  0  0  0
  184.6206  163.0046  136.2888 C   0  0  0  0  0  0  0  0  0  0  0  0
  185.5582  161.8801  136.5402 C   0  0  1  0  0  0  0  0  0  0  0  0
  185.8524  161.7364  138.0066 C   0  0  0  0  0  0  0  0  0  0  0  0
  186.7915  161.8789  135.6900 C   0  0  1  0  0  0  0  0  0  0  0  0
  187.9268  162.6637  136.2204 C   0  0  2  0  0  0  0  0  0  0  0  0
  188.4311  163.5302  135.0849 C   0  0  0  0  0  0  0  0  0  0  0  0
  188.9482  161.6379  136.6634 C   0  0  2  0  0  0  0  0  0  0  0  0
  189.3086  161.9051  138.1043 C   0  0  0  0  0  0  0  0  0  0  0  0
  190.7672  162.2237  138.3025 C   0  0  0  0  0  0  0  0  0  0  0  0
  191.1743  163.1317  137.1613 C   0  0  1  0  0  0  0  0  0  0  0  0
  192.6329  163.5358  137.3548 C   0  0  0  0  0  0  0  0  0  0  0  0
  191.0346  162.3614  135.8957 C   0  0  0  0  0  0  0  0  0  0  0  0
  190.0017  161.4925  135.8196 O   0  0  0  0  0  0  0  0  0  0  0  0
  188.2624  160.3991  136.6798 O   0  0  0  0  0  0  0  0  0  0  0  0
  1  2  1  1
  3  2  1  1
  3  4  1  0
  4  5  1  6
  5  6  1  0
  6  7  2  0
  7  8  1  0
  8  9  1  0
  9 10  1  1
  9 11  1  0
 11 12  1  0
 12 13  1  1
 12 14  1  0
 14 15  1  1
 14 16  1  0
 16 17  1  1
 17 18  1  0
 18 19  1  0
 19 20  1  1
 19 21  1  0
 21 22  1  0
 22 23  1  6
 22 24  1  0
 24 25  1  1
 25 26  1  0
 26 27  1  0
 27 28  1  1
 27 29  1  0
 29 30  1  0
 24 31  1  0
 21  1  1  1
 30 24  1  0
 31  1  1  0
 19  3  1  0
 16  4  1  0
 14  7  1  0
M  END
$$$$
