
     RDKit          3D

 31 36  0  0  0  0  0  0  0  0999 V2000
  131.7500  170.6678  142.2748 C   0  0  1  0  0  0  0  0  0  0  0  0
  131.2925  169.2328  142.5801 C   0  0  0  0  0  0  0  0  0  0  0  0
  130.6040  169.3930  143.8814 C   0  0  1  0  0  0  0  0  0  0  0  0
  130.3804  168.1633  144.6745 C   0  0  2  0  0  0  0  0  0  0  0  0
  129.3490  167.3242  143.9573 C   0  0  0  0  0  0  0  0  0  0  0  0
  129.0161  166.1612  144.8167 C   0  0  0  0  0  0  0  0  0  0  0  0
  129.0676  166.2149  146.1339 C   0  0  0  0  0  0  0  0  0  0  0  0
  128.7139  164.9917  146.9042 C   0  0  0  0  0  0  0  0  0  0  0  0
  127.5778  165.3623  147.8281 C   0  0  1  0  0  0  0  0  0  0  0  0
  127.8716  165.1490  149.1642 O   0  0  0  0  0  0  0  0  0  0  0  0
  127.1503  166.7960  147.6587 C   0  0  0  0  0  0  0  0  0  0  0  0
  128.2867  167.7711  147.8131 C   0  0  1  0  0  0  0  0  0  0  0  0
  128.6935  167.9024  149.1373 O   0  0  0  0  0  0  0  0  0  0  0  0
  129.4590  167.4288  146.8952 C   0  0  1  0  0  0  0  0  0  0  0  0
  130.6144  167.0657  147.7976 C   0  0  0  0  0  0  0  0  0  0  0  0
  129.7678  168.5933  146.0055 C   0  0  1  0  0  0  0  0  0  0  0  0
  130.6415  169.6099  146.7162 C   0  0  0  0  0  0  0  0  0  0  0  0
  130.8512  170.8269  145.8595 C   0  0  0  0  0  0  0  0  0  0  0  0
  131.5025  170.4107  144.5909 C   0  0  1  0  0  0  0  0  0  0  0  0
  132.8426  169.7823  144.8495 C   0  0  0  0  0  0  0  0  0  0  0  0
  131.5413  171.4601  143.5227 C   0  0  1  0  0  0  0  0  0  0  0  0
  132.7046  172.3715  143.5724 C   0  0  2  0  0  0  0  0  0  0  0  0
  132.1641  173.7815  143.4528 C   0  0  0  0  0  0  0  0  0  0  0  0
  133.5682  171.9805  142.3921 C   0  0  2  0  0  0  0  0  0  0  0  0
  134.9633  171.6902  142.8885 C   0  0  0  0  0  0  0  0  0  0  0  0
  136.0069  172.5974  142.2917 C   0  0  0  0  0  0  0  0  0  0  0  0
  135.4087  173.9879  142.2587 C   0  0  1  0  0  0  0  0  0  0  0  0
  136.4561  174.9580  141.7202 C   0  0  0  0  0  0  0  0  0  0  0  0
  134.2388  173.9574  141.3394 C   0  0  0  0  0  0  0  0  0  0  0  0
  133.4937  172.8293  141.3352 O   0  0  0  0  0  0  0  0  0  0  0  0
  133.0679  170.7316  141.9504 O   0  0  0  0  0  0  0  0  0  0  0  0
  1  2  1  1
  3  2  1  6
  3  4  1  0
  4  5  1  6
  5  6  1  0
  6  7  2  0
  7  8  1  0
  8  9  1  0
  9 10  1  1
  9 11  1  0
 11 12  1  0
 12 13  1  1
 12 14  1  0
 14 15  1  1
 14 16  1  0
 16 17  1  1
 17 18  1  0
 18 19  1  0
 19 20  1  1
 19 21  1  0
 21 22  1  0
 22 23  1  6
 22 24  1  0
 24 25  1  1
 25 26  1  0
 26 27  1  0
 27 28  1  6
 27 29  1  0
 29 30  1  0
 24 31  1  0
 21  1  1  6
 30 24  1  0
 31  1  1  0
 19  3  1  0
 16  4  1  0
 14  7  1  0
M  END
$$$$
