
     RDKit          3D

 31 36  0  0  0  0  0  0  0  0999 V2000
  170.5087  161.0896  119.9324 C   0  0  1  0  0  0  0  0  0  0  0  0
  170.3463  159.5964  120.2578 C   0  0  0  0  0  0  0  0  0  0  0  0
  169.4760  159.6291  121.4556 C   0  0  1  0  0  0  0  0  0  0  0  0
  169.4304  158.4016  122.2817 C   0  0  2  0  0  0  0  0  0  0  0  0
  168.7139  157.3316  121.4919 C   0  0  0  0  0  0  0  0  0  0  0  0
  168.5393  156.1458  122.3667 C   0  0  0  0  0  0  0  0  0  0  0  0
  168.4056  156.2438  123.6756 C   0  0  0  0  0  0  0  0  0  0  0  0
  168.2358  154.9924  124.4630 C   0  0  0  0  0  0  0  0  0  0  0  0
  166.9353  155.1183  125.2210 C   0  0  1  0  0  0  0  0  0  0  0  0
  167.0928  155.0119  126.5925 O   0  0  0  0  0  0  0  0  0  0  0  0
  166.2253  156.4122  124.9233 C   0  0  0  0  0  0  0  0  0  0  0  0
  167.0862  157.6240  125.1607 C   0  0  1  0  0  0  0  0  0  0  0  0
  167.2776  157.8785  126.5152 O   0  0  0  0  0  0  0  0  0  0  0  0
  168.4145  157.5340  124.4114 C   0  0  1  0  0  0  0  0  0  0  0  0
  169.4942  157.4669  125.4654 C   0  0  0  0  0  0  0  0  0  0  0  0
  168.5695  158.7150  123.5034 C   0  0  1  0  0  0  0  0  0  0  0  0
  169.0950  159.9217  124.2581 C   0  0  0  0  0  0  0  0  0  0  0  0
  169.1383  161.1320  123.3680 C   0  0  0  0  0  0  0  0  0  0  0  0
  170.0253  160.8426  122.2121 C   0  0  1  0  0  0  0  0  0  0  0  0
  171.4263  160.5426  122.6648 C   0  0  0  0  0  0  0  0  0  0  0  0
  169.9683  161.8454  121.1008 C   0  0  1  0  0  0  0  0  0  0  0  0
  170.8830  162.9986  121.2411 C   0  0  2  0  0  0  0  0  0  0  0  0
  170.0626  164.2450  120.9804 C   0  0  0  0  0  0  0  0  0  0  0  0
  171.9580  162.7843  120.1970 C   0  0  2  0  0  0  0  0  0  0  0  0
  173.3060  162.8321  120.8737 C   0  0  0  0  0  0  0  0  0  0  0  0
  174.1902  163.9374  120.3590 C   0  0  0  0  0  0  0  0  0  0  0  0
  173.3070  165.1539  120.1781 C   0  0  1  0  0  0  0  0  0  0  0  0
  174.1732  166.3227  119.7182 C   0  0  0  0  0  0  0  0  0  0  0  0
  172.3031  164.8342  119.1271 C   0  0  0  0  0  0  0  0  0  0  0  0
  171.8348  163.5664  119.0942 O   0  0  0  0  0  0  0  0  0  0  0  0
  171.8101  161.4433  119.7668 O   0  0  0  0  0  0  0  0  0  0  0  0
  1  2  1  1
  3  2  1  6
  3  4  1  0
  4  5  1  6
  5  6  1  0
  6  7  2  0
  7  8  1  0
  8  9  1  0
  9 10  1  1
  9 11  1  0
 11 12  1  0
 12 13  1  1
 12 14  1  0
 14 15  1  1
 14 16  1  0
 16 17  1  1
 17 18  1  0
 18 19  1  0
 19 20  1  1
 19 21  1  0
 21 22  1  0
 22 23  1  6
 22 24  1  0
 24 25  1  1
 25 26  1  0
 26 27  1  0
 27 28  1  6
 27 29  1  0
 29 30  1  0
 24 31  1  0
 21  1  1  6
 30 24  1  0
 31  1  1  0
 19  3  1  0
 16  4  1  0
 14  7  1  0
M  END
$$$$
