
     RDKit          3D

 31 36  0  0  0  0  0  0  0  0999 V2000
  192.1138  157.7464  117.8869 C   0  0  1  0  0  0  0  0  0  0  0  0
  192.3198  158.3366  119.2909 C   0  0  0  0  0  0  0  0  0  0  0  0
  190.9496  158.7637  119.6560 C   0  0  1  0  0  0  0  0  0  0  0  0
  190.8261  159.7308  120.7698 C   0  0  2  0  0  0  0  0  0  0  0  0
  191.2074  159.0235  122.0490 C   0  0  0  0  0  0  0  0  0  0  0  0
  190.9493  159.9437  123.1842 C   0  0  0  0  0  0  0  0  0  0  0  0
  189.9940  160.8532  123.1567 C   0  0  0  0  0  0  0  0  0  0  0  0
  189.8177  161.7273  124.3482 C   0  0  0  0  0  0  0  0  0  0  0  0
  188.3964  161.5446  124.8259 C   0  0  1  0  0  0  0  0  0  0  0  0
  187.6740  162.7256  124.8482 O   0  0  0  0  0  0  0  0  0  0  0  0
  187.6408  160.5412  123.9957 C   0  0  0  0  0  0  0  0  0  0  0  0
  187.6590  160.8614  122.5249 C   0  0  1  0  0  0  0  0  0  0  0  0
  186.8442  161.9446  122.2103 O   0  0  0  0  0  0  0  0  0  0  0  0
  189.0814  161.0563  122.0025 C   0  0  1  0  0  0  0  0  0  0  0  0
  189.1826  162.5003  121.5714 C   0  0  0  0  0  0  0  0  0  0  0  0
  189.3487  160.1008  120.8805 C   0  0  1  0  0  0  0  0  0  0  0  0
  188.8098  160.6339  119.5662 C   0  0  0  0  0  0  0  0  0  0  0  0
  188.9783  159.6208  118.4689 C   0  0  0  0  0  0  0  0  0  0  0  0
  190.4237  159.3095  118.3248 C   0  0  1  0  0  0  0  0  0  0  0  0
  191.2089  160.5362  117.9557 C   0  0  0  0  0  0  0  0  0  0  0  0
  190.7359  158.1284  117.4580 C   0  0  1  0  0  0  0  0  0  0  0  0
  190.8733  158.4207  116.0151 C   0  0  2  0  0  0  0  0  0  0  0  0
  190.0348  157.3975  115.2773 C   0  0  0  0  0  0  0  0  0  0  0  0
  192.3512  158.2804  115.7188 C   0  0  2  0  0  0  0  0  0  0  0  0
  192.8360  159.5505  115.0637 C   0  0  0  0  0  0  0  0  0  0  0  0
  193.3838  159.3324  113.6778 C   0  0  0  0  0  0  0  0  0  0  0  0
  192.4620  158.3441  112.9951 C   0  0  1  0  0  0  0  0  0  0  0  0
  192.9405  158.1399  111.5607 C   0  0  0  0  0  0  0  0  0  0  0  0
  192.5471  157.0565  113.7364 C   0  0  0  0  0  0  0  0  0  0  0  0
  192.6898  157.1321  115.0787 O   0  0  0  0  0  0  0  0  0  0  0  0
  192.9922  158.2501  116.9810 O   0  0  0  0  0  0  0  0  0  0  0  0
  1  2  1  1
  3  2  1  6
  3  4  1  0
  4  5  1  1
  5  6  1  0
  6  7  2  0
  7  8  1  0
  8  9  1  0
  9 10  1  6
  9 11  1  0
 11 12  1  0
 12 13  1  1
 12 14  1  0
 14 15  1  6
 14 16  1  0
 16 17  1  6
 17 18  1  0
 18 19  1  0
 19 20  1  6
 19 21  1  0
 21 22  1  0
 22 23  1  6
 22 24  1  0
 24 25  1  6
 25 26  1  0
 26 27  1  0
 27 28  1  6
 27 29  1  0
 29 30  1  0
 24 31  1  0
 21  1  1  1
 30 24  1  0
 31  1  1  0
 19  3  1  0
 16  4  1  0
 14  7  1  0
M  END
$$$$
