
     RDKit          3D

 31 36  0  0  0  0  0  0  0  0999 V2000
  189.1149  135.0314  132.4708 C   0  0  1  0  0  0  0  0  0  0  0  0
  188.6684  136.2774  131.6898 C   0  0  0  0  0  0  0  0  0  0  0  0
  188.0912  135.6870  130.4604 C   0  0  1  0  0  0  0  0  0  0  0  0
  187.9202  136.5921  129.3017 C   0  0  2  0  0  0  0  0  0  0  0  0
  186.8241  137.5771  129.6341 C   0  0  0  0  0  0  0  0  0  0  0  0
  186.5504  138.3940  128.4259 C   0  0  0  0  0  0  0  0  0  0  0  0
  186.7108  137.9266  127.2026 C   0  0  0  0  0  0  0  0  0  0  0  0
  186.4084  138.8280  126.0577 C   0  0  0  0  0  0  0  0  0  0  0  0
  185.3564  138.1418  125.2187 C   0  0  1  0  0  0  0  0  0  0  0  0
  185.7569  137.9304  123.9103 O   0  0  0  0  0  0  0  0  0  0  0  0
  184.9321  136.8214  125.8049 C   0  0  0  0  0  0  0  0  0  0  0  0
  186.0880  135.8901  126.0553 C   0  0  1  0  0  0  0  0  0  0  0  0
  186.6040  135.3602  124.8767 O   0  0  0  0  0  0  0  0  0  0  0  0
  187.1769  136.5491  126.9004 C   0  0  1  0  0  0  0  0  0  0  0  0
  188.3987  136.6489  126.0181 C   0  0  0  0  0  0  0  0  0  0  0  0
  187.4241  135.7395  128.1360 C   0  0  1  0  0  0  0  0  0  0  0  0
  188.3645  134.5827  127.8545 C   0  0  0  0  0  0  0  0  0  0  0  0
  188.5163  133.7093  129.0683 C   0  0  0  0  0  0  0  0  0  0  0  0
  189.0563  134.5303  130.1823 C   0  0  1  0  0  0  0  0  0  0  0  0
  190.4061  135.0928  129.8372 C   0  0  0  0  0  0  0  0  0  0  0  0
  189.0185  133.8767  131.5296 C   0  0  1  0  0  0  0  0  0  0  0  0
  190.1918  133.0401  131.8605 C   0  0  2  0  0  0  0  0  0  0  0  0
  189.6589  131.7222  132.3836 C   0  0  0  0  0  0  0  0  0  0  0  0
  190.9509  133.8170  132.9150 C   0  0  2  0  0  0  0  0  0  0  0  0
  192.3790  133.9857  132.4573 C   0  0  0  0  0  0  0  0  0  0  0  0
  193.3798  133.3539  133.3887 C   0  0  0  0  0  0  0  0  0  0  0  0
  192.7961  132.0249  133.8196 C   0  0  1  0  0  0  0  0  0  0  0  0
  193.8062  131.3152  134.7163 C   0  0  0  0  0  0  0  0  0  0  0  0
  191.5542  132.3028  134.5910 C   0  0  0  0  0  0  0  0  0  0  0  0
  190.7990  133.3456  134.1790 O   0  0  0  0  0  0  0  0  0  0  0  0
  190.4022  135.1223  132.8959 O   0  0  0  0  0  0  0  0  0  0  0  0
  1  2  1  6
  3  2  1  1
  3  4  1  0
  4  5  1  1
  5  6  1  0
  6  7  2  0
  7  8  1  0
  8  9  1  0
  9 10  1  6
  9 11  1  0
 11 12  1  0
 12 13  1  6
 12 14  1  0
 14 15  1  6
 14 16  1  0
 16 17  1  6
 17 18  1  0
 18 19  1  0
 19 20  1  6
 19 21  1  0
 21 22  1  0
 22 23  1  1
 22 24  1  0
 24 25  1  6
 25 26  1  0
 26 27  1  0
 27 28  1  1
 27 29  1  0
 29 30  1  0
 24 31  1  0
 21  1  1  1
 30 24  1  0
 31  1  1  0
 19  3  1  0
 16  4  1  0
 14  7  1  0
M  END
$$$$
