
     RDKit          3D

 31 36  0  0  0  0  0  0  0  0999 V2000
  117.0181  149.2563  165.6176 C   0  0  1  0  0  0  0  0  0  0  0  0
  116.5085  147.9041  165.0943 C   0  0  0  0  0  0  0  0  0  0  0  0
  117.3002  147.7286  163.8551 C   0  0  1  0  0  0  0  0  0  0  0  0
  116.7999  146.7354  162.8782 C   0  0  2  0  0  0  0  0  0  0  0  0
  116.9783  145.3594  163.4756 C   0  0  0  0  0  0  0  0  0  0  0  0
  116.6120  144.3545  162.4470 C   0  0  0  0  0  0  0  0  0  0  0  0
  116.7697  144.5720  161.1553 C   0  0  0  0  0  0  0  0  0  0  0  0
  116.3708  143.4982  160.2053 C   0  0  0  0  0  0  0  0  0  0  0  0
  117.5917  143.1560  159.3844 C   0  0  1  0  0  0  0  0  0  0  0  0
  117.3979  143.3268  158.0241 O   0  0  0  0  0  0  0  0  0  0  0  0
  118.7982  143.9570  159.7966 C   0  0  0  0  0  0  0  0  0  0  0  0
  118.5544  145.4423  159.7736 C   0  0  1  0  0  0  0  0  0  0  0  0
  118.4881  145.9464  158.4784 O   0  0  0  0  0  0  0  0  0  0  0  0
  117.3240  145.8297  160.5923 C   0  0  1  0  0  0  0  0  0  0  0  0
  116.3197  146.3892  159.6127 C   0  0  0  0  0  0  0  0  0  0  0  0
  117.7059  146.8171  161.6517 C   0  0  1  0  0  0  0  0  0  0  0  0
  117.7592  148.2270  161.0937 C   0  0  0  0  0  0  0  0  0  0  0  0
  118.2543  149.1946  162.1317 C   0  0  0  0  0  0  0  0  0  0  0  0
  117.3350  149.1550  163.2979 C   0  0  1  0  0  0  0  0  0  0  0  0
  115.9424  149.5600  162.9051 C   0  0  0  0  0  0  0  0  0  0  0  0
  117.8302  149.8628  164.5216 C   0  0  1  0  0  0  0  0  0  0  0  0
  117.5128  151.3053  164.5908 C   0  0  2  0  0  0  0  0  0  0  0  0
  118.7974  152.0215  164.9529 C   0  0  0  0  0  0  0  0  0  0  0  0
  116.4569  151.4300  165.6684 C   0  0  2  0  0  0  0  0  0  0  0  0
  115.2633  152.1536  165.0948 C   0  0  0  0  0  0  0  0  0  0  0  0
  114.9551  153.4461  165.8040 C   0  0  0  0  0  0  0  0  0  0  0  0
  116.2827  154.1199  166.0792 C   0  0  1  0  0  0  0  0  0  0  0  0
  116.0182  155.4690  166.7411 C   0  0  0  0  0  0  0  0  0  0  0  0
  117.0494  153.2495  167.0115 C   0  0  0  0  0  0  0  0  0  0  0  0
  116.9149  151.9139  166.8512 O   0  0  0  0  0  0  0  0  0  0  0  0
  116.0041  150.1108  165.9133 O   0  0  0  0  0  0  0  0  0  0  0  0
  1  2  1  6
  3  2  1  1
  3  4  1  0
  4  5  1  1
  5  6  1  0
  6  7  2  0
  7  8  1  0
  8  9  1  0
  9 10  1  6
  9 11  1  0
 11 12  1  0
 12 13  1  6
 12 14  1  0
 14 15  1  6
 14 16  1  0
 16 17  1  6
 17 18  1  0
 18 19  1  0
 19 20  1  6
 19 21  1  0
 21 22  1  0
 22 23  1  1
 22 24  1  0
 24 25  1  6
 25 26  1  0
 26 27  1  0
 27 28  1  1
 27 29  1  0
 29 30  1  0
 24 31  1  0
 21  1  1  1
 30 24  1  0
 31  1  1  0
 19  3  1  0
 16  4  1  0
 14  7  1  0
M  END
$$$$
