
     RDKit          3D

 31 36  0  0  0  0  0  0  0  0999 V2000
  195.1746  159.5833  119.6466 C   0  0  1  0  0  0  0  0  0  0  0  0
  194.6911  158.7220  120.8240 C   0  0  0  0  0  0  0  0  0  0  0  0
  193.2510  159.0609  120.8902 C   0  0  1  0  0  0  0  0  0  0  0  0
  192.5435  158.7272  122.1469 C   0  0  2  0  0  0  0  0  0  0  0  0
  192.4422  157.2229  122.2424 C   0  0  0  0  0  0  0  0  0  0  0  0
  191.6112  156.8867  123.4249 C   0  0  0  0  0  0  0  0  0  0  0  0
  190.6444  157.6727  123.8589 C   0  0  0  0  0  0  0  0  0  0  0  0
  189.8693  157.2432  125.0545 C   0  0  0  0  0  0  0  0  0  0  0  0
  188.4170  157.1832  124.6435 C   0  0  1  0  0  0  0  0  0  0  0  0
  187.6023  158.0057  125.4030 O   0  0  0  0  0  0  0  0  0  0  0  0
  188.2210  157.5301  123.1915 C   0  0  0  0  0  0  0  0  0  0  0  0
  188.8130  158.8633  122.8199 C   0  0  1  0  0  0  0  0  0  0  0  0
  188.0699  159.9285  123.3193 O   0  0  0  0  0  0  0  0  0  0  0  0
  190.2834  158.9650  123.2218 C   0  0  1  0  0  0  0  0  0  0  0  0
  190.3636  160.0462  124.2733 C   0  0  0  0  0  0  0  0  0  0  0  0
  191.1218  159.2692  122.0186 C   0  0  1  0  0  0  0  0  0  0  0  0
  191.1196  160.7548  121.7102 C   0  0  0  0  0  0  0  0  0  0  0  0
  191.8666  161.0378  120.4371 C   0  0  0  0  0  0  0  0  0  0  0  0
  193.2659  160.5629  120.5894 C   0  0  1  0  0  0  0  0  0  0  0  0
  193.9629  161.2787  121.7116 C   0  0  0  0  0  0  0  0  0  0  0  0
  194.0673  160.5312  119.3243 C   0  0  1  0  0  0  0  0  0  0  0  0
  194.7582  161.7925  118.9808 C   0  0  2  0  0  0  0  0  0  0  0  0
  194.4516  162.0798  117.5255 C   0  0  0  0  0  0  0  0  0  0  0  0
  196.2280  161.5200  119.2199 C   0  0  2  0  0  0  0  0  0  0  0  0
  196.7698  162.5741  120.1540 C   0  0  0  0  0  0  0  0  0  0  0  0
  197.8730  163.3982  119.5438 C   0  0  0  0  0  0  0  0  0  0  0  0
  197.4637  163.6847  118.1145 C   0  0  1  0  0  0  0  0  0  0  0  0
  198.5232  164.5751  117.4719 C   0  0  0  0  0  0  0  0  0  0  0  0
  197.3995  162.3857  117.3913 C   0  0  0  0  0  0  0  0  0  0  0  0
  196.9535  161.3180  118.0904 O   0  0  0  0  0  0  0  0  0  0  0  0
  196.2769  160.3134  119.9595 O   0  0  0  0  0  0  0  0  0  0  0  0
  1  2  1  1
  3  2  1  1
  3  4  1  0
  4  5  1  6
  5  6  1  0
  6  7  2  0
  7  8  1  0
  8  9  1  0
  9 10  1  1
  9 11  1  0
 11 12  1  0
 12 13  1  1
 12 14  1  0
 14 15  1  1
 14 16  1  0
 16 17  1  1
 17 18  1  0
 18 19  1  0
 19 20  1  1
 19 21  1  0
 21 22  1  0
 22 23  1  6
 22 24  1  0
 24 25  1  1
 25 26  1  0
 26 27  1  0
 27 28  1  6
 27 29  1  0
 29 30  1  0
 24 31  1  0
 21  1  1  1
 30 24  1  0
 31  1  1  0
 19  3  1  0
 16  4  1  0
 14  7  1  0
M  END
$$$$
