
     RDKit          3D

 31 36  0  0  0  0  0  0  0  0999 V2000
  203.5337  131.2794  137.4401 C   0  0  1  0  0  0  0  0  0  0  0  0
  202.9383  130.2071  136.5140 C   0  0  0  0  0  0  0  0  0  0  0  0
  203.2012  130.7717  135.1704 C   0  0  1  0  0  0  0  0  0  0  0  0
  202.4200  130.2100  134.0455 C   0  0  2  0  0  0  0  0  0  0  0  0
  202.8906  128.7942  133.8088 C   0  0  0  0  0  0  0  0  0  0  0  0
  202.2137  128.2757  132.5944 C   0  0  0  0  0  0  0  0  0  0  0  0
  201.8504  129.0584  131.5963 C   0  0  0  0  0  0  0  0  0  0  0  0
  201.1773  128.4384  130.4227 C   0  0  0  0  0  0  0  0  0  0  0  0
  202.0060  128.7772  129.2060 C   0  0  1  0  0  0  0  0  0  0  0  0
  201.2950  129.4670  128.2386 O   0  0  0  0  0  0  0  0  0  0  0  0
  203.2316  129.5784  129.5565 C   0  0  0  0  0  0  0  0  0  0  0  0
  202.9154  130.8270  130.3357 C   0  0  1  0  0  0  0  0  0  0  0  0
  202.3285  131.8091  129.5438 O   0  0  0  0  0  0  0  0  0  0  0  0
  202.0748  130.5265  131.5755 C   0  0  1  0  0  0  0  0  0  0  0  0
  200.7416  131.2030  131.3602 C   0  0  0  0  0  0  0  0  0  0  0  0
  202.7789  131.0200  132.8018 C   0  0  1  0  0  0  0  0  0  0  0  0
  202.5351  132.5023  133.0150 C   0  0  0  0  0  0  0  0  0  0  0  0
  203.3365  133.0141  134.1789 C   0  0  0  0  0  0  0  0  0  0  0  0
  202.9397  132.2637  135.3981 C   0  0  1  0  0  0  0  0  0  0  0  0
  201.4830  132.4625  135.7076 C   0  0  0  0  0  0  0  0  0  0  0  0
  203.8271  132.4690  136.5873 C   0  0  1  0  0  0  0  0  0  0  0  0
  203.4808  133.6234  137.4439 C   0  0  2  0  0  0  0  0  0  0  0  0
  204.7640  134.3905  137.6880 C   0  0  0  0  0  0  0  0  0  0  0  0
  202.9151  133.0228  138.7131 C   0  0  2  0  0  0  0  0  0  0  0  0
  201.5545  133.6236  138.9680 C   0  0  0  0  0  0  0  0  0  0  0  0
  201.4711  134.3737  140.2713 C   0  0  0  0  0  0  0  0  0  0  0  0
  202.7628  135.1512  140.4105 C   0  0  1  0  0  0  0  0  0  0  0  0
  202.6983  135.9812  141.6892 C   0  0  0  0  0  0  0  0  0  0  0  0
  203.8761  134.1687  140.5100 C   0  0  0  0  0  0  0  0  0  0  0  0
  203.7649  133.0418  139.7716 O   0  0  0  0  0  0  0  0  0  0  0  0
  202.6654  131.6617  138.4127 O   0  0  0  0  0  0  0  0  0  0  0  0
  1  2  1  6
  3  2  1  1
  3  4  1  0
  4  5  1  6
  5  6  1  0
  6  7  2  0
  7  8  1  0
  8  9  1  0
  9 10  1  6
  9 11  1  0
 11 12  1  0
 12 13  1  6
 12 14  1  0
 14 15  1  6
 14 16  1  0
 16 17  1  1
 17 18  1  0
 18 19  1  0
 19 20  1  1
 19 21  1  0
 21 22  1  0
 22 23  1  1
 22 24  1  0
 24 25  1  1
 25 26  1  0
 26 27  1  0
 27 28  1  1
 27 29  1  0
 29 30  1  0
 24 31  1  0
 21  1  1  1
 30 24  1  0
 31  1  1  0
 19  3  1  0
 16  4  1  0
 14  7  1  0
M  END
$$$$
