
     RDKit          3D

 31 36  0  0  0  0  0  0  0  0999 V2000
  192.2775  158.8548  121.9828 C   0  0  1  0  0  0  0  0  0  0  0  0
  192.5303  158.0288  120.7117 C   0  0  0  0  0  0  0  0  0  0  0  0
  192.1712  158.9850  119.6394 C   0  0  1  0  0  0  0  0  0  0  0  0
  191.9108  158.4167  118.2976 C   0  0  2  0  0  0  0  0  0  0  0  0
  193.2207  157.9104  117.7408 C   0  0  0  0  0  0  0  0  0  0  0  0
  192.9927  157.4705  116.3421 C   0  0  0  0  0  0  0  0  0  0  0  0
  192.0793  158.0211  115.5654 C   0  0  0  0  0  0  0  0  0  0  0  0
  191.9305  157.5063  114.1771 C   0  0  0  0  0  0  0  0  0  0  0  0
  192.1383  158.6769  113.2452 C   0  0  1  0  0  0  0  0  0  0  0  0
  191.0526  158.9140  112.4193 O   0  0  0  0  0  0  0  0  0  0  0  0
  192.4561  159.9472  113.9884 C   0  0  0  0  0  0  0  0  0  0  0  0
  191.4292  160.2898  115.0344 C   0  0  1  0  0  0  0  0  0  0  0  0
  190.2399  160.7485  114.4763 O   0  0  0  0  0  0  0  0  0  0  0  0
  191.1882  159.1283  115.9972 C   0  0  1  0  0  0  0  0  0  0  0  0
  189.7581  158.6903  115.7866 C   0  0  0  0  0  0  0  0  0  0  0  0
  191.4541  159.5677  117.4041 C   0  0  1  0  0  0  0  0  0  0  0  0
  190.2521  160.2834  117.9914 C   0  0  0  0  0  0  0  0  0  0  0  0
  190.5659  160.8220  119.3590 C   0  0  0  0  0  0  0  0  0  0  0  0
  190.9514  159.6901  120.2406 C   0  0  1  0  0  0  0  0  0  0  0  0
  189.8301  158.6987  120.3726 C   0  0  0  0  0  0  0  0  0  0  0  0
  191.5458  160.0846  121.5577 C   0  0  1  0  0  0  0  0  0  0  0  0
  190.5730  160.3220  122.6457 C   0  0  2  0  0  0  0  0  0  0  0  0
  190.9440  161.6432  123.2869 C   0  0  0  0  0  0  0  0  0  0  0  0
  190.7397  159.1522  123.5919 C   0  0  2  0  0  0  0  0  0  0  0  0
  189.3934  158.5033  123.8010 C   0  0  0  0  0  0  0  0  0  0  0  0
  188.9376  158.5300  125.2362 C   0  0  0  0  0  0  0  0  0  0  0  0
  189.2962  159.8959  125.7823 C   0  0  1  0  0  0  0  0  0  0  0  0
  188.7940  159.9948  127.2198 C   0  0  0  0  0  0  0  0  0  0  0  0
  190.7792  160.0178  125.7633 C   0  0  0  0  0  0  0  0  0  0  0  0
  191.4269  159.4403  124.7267 O   0  0  0  0  0  0  0  0  0  0  0  0
  191.5035  158.1936  122.8827 O   0  0  0  0  0  0  0  0  0  0  0  0
  1  2  1  6
  3  2  1  1
  3  4  1  0
  4  5  1  6
  5  6  1  0
  6  7  2  0
  7  8  1  0
  8  9  1  0
  9 10  1  1
  9 11  1  0
 11 12  1  0
 12 13  1  6
 12 14  1  0
 14 15  1  1
 14 16  1  0
 16 17  1  1
 17 18  1  0
 18 19  1  0
 19 20  1  1
 19 21  1  0
 21 22  1  0
 22 23  1  1
 22 24  1  0
 24 25  1  1
 25 26  1  0
 26 27  1  0
 27 28  1  1
 27 29  1  0
 29 30  1  0
 24 31  1  0
 21  1  1  1
 30 24  1  0
 31  1  1  0
 19  3  1  0
 16  4  1  0
 14  7  1  0
M  END
$$$$
