
     RDKit          3D

 39 44  0  0  0  0  0  0  0  0999 V2000
  129.4633  134.7116  132.1313 C   0  0  0  0  0  0  0  0  0  0  0  0
  128.4797  135.6655  131.9082 O   0  0  0  0  0  0  0  0  0  0  0  0
  129.0469  136.9063  131.7511 C   0  0  2  0  0  0  0  0  0  0  0  0
  130.4825  136.8052  131.2198 C   0  0  1  0  0  0  0  0  0  0  0  0
  130.4500  136.2820  129.9348 O   0  0  0  0  0  0  0  0  0  0  0  0
  131.0539  138.2043  131.2662 C   0  0  2  0  0  0  0  0  0  0  0  0
  132.2306  138.2795  132.2228 C   0  0  0  0  0  0  0  0  0  0  0  0
  130.0945  139.1583  131.5433 O   0  0  0  0  0  0  0  0  0  0  0  0
  129.6839  138.9751  132.8599 C   0  0  1  0  0  0  0  0  0  0  0  0
  128.7225  139.8829  133.2542 O   0  0  0  0  0  0  0  0  0  0  0  0
  129.2603  141.1201  133.6040 C   0  0  1  0  0  0  0  0  0  0  0  0
  129.2725  141.9649  132.3500 C   0  0  0  0  0  0  0  0  0  0  0  0
  129.6210  143.3970  132.6858 C   0  0  0  0  0  0  0  0  0  0  0  0
  128.4868  143.9457  133.5654 C   0  0  1  0  0  0  0  0  0  0  0  0
  127.2304  143.5753  132.8697 C   0  0  0  0  0  0  0  0  0  0  0  0
  126.1493  143.4744  133.3790 O   0  0  0  0  0  0  0  0  0  0  0  0
  128.5537  143.1883  134.8569 C   0  0  2  0  0  0  0  0  0  0  0  0
  129.8168  143.4998  135.6476 C   0  0  0  0  0  0  0  0  0  0  0  0
  130.2054  144.9468  135.5788 C   0  0  0  0  0  0  0  0  0  0  0  0
  128.9803  145.7564  135.2219 C   0  0  2  0  0  0  0  0  0  0  0  0
  128.6153  145.4137  133.8040 C   0  0  2  0  0  0  0  0  0  0  0  0
  127.4329  146.2203  133.3335 C   0  0  0  0  0  0  0  0  0  0  0  0
  126.8986  147.1695  134.3332 C   0  0  0  0  0  0  0  0  0  0  0  0
  127.9211  147.9548  135.0952 C   0  0  2  0  0  0  0  0  0  0  0  0
  127.2753  148.3675  136.4093 C   0  0  0  0  0  0  0  0  0  0  0  0
  128.3374  149.2202  134.3820 C   0  0  2  0  0  0  0  0  0  0  0  0
  129.8461  149.3384  134.6676 C   0  0  0  0  0  0  0  0  0  0  0  0
  130.2178  147.8461  134.5578 C   0  0  0  0  0  0  0  0  0  0  0  0
  129.1744  147.2253  135.4036 C   0  0  2  0  0  0  0  0  0  0  0  0
  129.5726  147.4374  136.7486 O   0  0  0  0  0  0  0  0  0  0  0  0
  127.6466  150.4332  134.8512 C   0  0  0  0  0  0  0  0  0  0  0  0
  126.7534  151.1753  134.1850 C   0  0  0  0  0  0  0  0  0  0  0  0
  126.3169  152.2805  135.0023 C   0  0  0  0  0  0  0  0  0  0  0  0
  125.4881  153.2075  134.7514 O   0  0  0  0  0  0  0  0  0  0  0  0
  126.9801  152.1911  136.2075 O   0  0  0  0  0  0  0  0  0  0  0  0
  127.7993  151.0641  136.1822 C   0  0  0  0  0  0  0  0  0  0  0  0
  128.4560  141.6999  134.7085 C   0  0  0  0  0  0  0  0  0  0  0  0
  129.1405  137.5828  133.0927 C   0  0  1  0  0  0  0  0  0  0  0  0
  127.8720  137.6142  133.6679 O   0  0  0  0  0  0  0  0  0  0  0  0
  1  2  1  0
  3  2  1  1
  3  4  1  0
  4  5  1  6
  4  6  1  0
  6  7  1  1
  6  8  1  0
  8  9  1  0
  9 10  1  6
 11 10  1  6
 11 12  1  0
 12 13  1  0
 13 14  1  0
 14 15  1  6
 15 16  2  0
 14 17  1  0
 17 18  1  6
 18 19  1  0
 20 19  1  6
 20 21  1  0
 21 22  1  1
 22 23  1  0
 23 24  1  0
 24 25  1  1
 24 26  1  0
 26 27  1  0
 27 28  1  0
 28 29  1  0
 29 30  1  1
 26 31  1  1
 31 32  2  0
 32 33  1  0
 33 34  2  0
 33 35  1  0
 35 36  1  0
 17 37  1  0
  9 38  1  0
 38 39  1  6
 38  3  1  0
 37 11  1  0
 21 14  1  0
 29 24  1  0
 36 31  1  0
 29 20  1  0
M  END
$$$$
