
     RDKit          3D

 39 44  0  0  0  0  0  0  0  0999 V2000
  192.1890  163.9544  129.2283 C   0  0  0  0  0  0  0  0  0  0  0  0
  191.1545  164.0531  128.3079 O   0  0  0  0  0  0  0  0  0  0  0  0
  190.8508  162.8144  127.7986 C   0  0  2  0  0  0  0  0  0  0  0  0
  191.2390  161.6951  128.7731 C   0  0  1  0  0  0  0  0  0  0  0  0
  190.4507  161.7966  129.9107 O   0  0  0  0  0  0  0  0  0  0  0  0
  191.0303  160.3935  128.0325 C   0  0  2  0  0  0  0  0  0  0  0  0
  192.3427  159.6499  127.8595 C   0  0  0  0  0  0  0  0  0  0  0  0
  190.3675  160.5679  126.8334 O   0  0  0  0  0  0  0  0  0  0  0  0
  191.2220  161.2504  125.9734 C   0  0  1  0  0  0  0  0  0  0  0  0
  190.6649  161.4785  124.7318 O   0  0  0  0  0  0  0  0  0  0  0  0
  191.3267  160.7986  123.7108 C   0  0  1  0  0  0  0  0  0  0  0  0
  190.5782  159.5039  123.4875 C   0  0  0  0  0  0  0  0  0  0  0  0
  191.0859  158.8127  122.2426 C   0  0  0  0  0  0  0  0  0  0  0  0
  190.7460  159.7196  121.0495 C   0  0  1  0  0  0  0  0  0  0  0  0
  189.3216  160.0921  121.2273 C   0  0  0  0  0  0  0  0  0  0  0  0
  188.3824  159.3573  121.0994 O   0  0  0  0  0  0  0  0  0  0  0  0
  191.5815  160.9536  121.2094 C   0  0  2  0  0  0  0  0  0  0  0  0
  193.0688  160.6726  121.0467 C   0  0  0  0  0  0  0  0  0  0  0  0
  193.3588  159.6776  119.9624 C   0  0  0  0  0  0  0  0  0  0  0  0
  192.1894  159.6562  119.0053 C   0  0  2  0  0  0  0  0  0  0  0  0
  191.0213  159.0585  119.7397 C   0  0  2  0  0  0  0  0  0  0  0  0
  189.8156  158.9392  118.8443 C   0  0  0  0  0  0  0  0  0  0  0  0
  190.0291  159.4087  117.4587 C   0  0  0  0  0  0  0  0  0  0  0  0
  191.3182  158.9894  116.8219 C   0  0  2  0  0  0  0  0  0  0  0  0
  191.6283  160.0073  115.7348 C   0  0  0  0  0  0  0  0  0  0  0  0
  191.2290  157.6353  116.1576 C   0  0  2  0  0  0  0  0  0  0  0  0
  192.5946  156.9821  116.4417 C   0  0  0  0  0  0  0  0  0  0  0  0
  192.7919  157.4826  117.8866 C   0  0  0  0  0  0  0  0  0  0  0  0
  192.4813  158.9218  117.7390 C   0  0  2  0  0  0  0  0  0  0  0  0
  193.6282  159.5199  117.1563 O   0  0  0  0  0  0  0  0  0  0  0  0
  190.9972  157.6895  114.7043 C   0  0  0  0  0  0  0  0  0  0  0  0
  189.8904  158.0909  114.0670 C   0  0  0  0  0  0  0  0  0  0  0  0
  190.0739  157.9894  112.6401 C   0  0  0  0  0  0  0  0  0  0  0  0
  189.2797  158.2663  111.6904 O   0  0  0  0  0  0  0  0  0  0  0  0
  191.3460  157.5061  112.4199 O   0  0  0  0  0  0  0  0  0  0  0  0
  191.9706  157.3194  113.6514 C   0  0  0  0  0  0  0  0  0  0  0  0
  191.3857  161.6705  122.5112 C   0  0  0  0  0  0  0  0  0  0  0  0
  191.6544  162.5815  126.5471 C   0  0  1  0  0  0  0  0  0  0  0  0
  191.4140  163.6279  125.6593 O   0  0  0  0  0  0  0  0  0  0  0  0
  1  2  1  0
  3  2  1  1
  3  4  1  0
  4  5  1  1
  4  6  1  0
  6  7  1  6
  6  8  1  0
  8  9  1  0
  9 10  1  6
 11 10  1  1
 11 12  1  0
 12 13  1  0
 13 14  1  0
 14 15  1  6
 15 16  2  0
 14 17  1  0
 17 18  1  1
 18 19  1  0
 20 19  1  1
 20 21  1  0
 21 22  1  6
 22 23  1  0
 23 24  1  0
 24 25  1  6
 24 26  1  0
 26 27  1  0
 27 28  1  0
 28 29  1  0
 29 30  1  6
 26 31  1  6
 31 32  2  0
 32 33  1  0
 33 34  2  0
 33 35  1  0
 35 36  1  0
 17 37  1  0
  9 38  1  0
 38 39  1  6
 38  3  1  0
 37 11  1  0
 21 14  1  0
 29 24  1  0
 36 31  1  0
 29 20  1  0
M  END
$$$$
