
     RDKit          3D

 39 44  0  0  0  0  0  0  0  0999 V2000
  129.2941  132.2935  131.7472 C   0  0  0  0  0  0  0  0  0  0  0  0
  128.0976  132.9320  132.0438 O   0  0  0  0  0  0  0  0  0  0  0  0
  128.0960  134.2041  131.5265 C   0  0  2  0  0  0  0  0  0  0  0  0
  128.4780  134.2074  130.0407 C   0  0  1  0  0  0  0  0  0  0  0  0
  127.4912  133.5477  129.3218 O   0  0  0  0  0  0  0  0  0  0  0  0
  128.6205  135.6585  129.6404 C   0  0  2  0  0  0  0  0  0  0  0  0
  130.0455  135.9685  129.2178 C   0  0  0  0  0  0  0  0  0  0  0  0
  128.1660  136.5234  130.6165 O   0  0  0  0  0  0  0  0  0  0  0  0
  129.0396  136.4392  131.6960 C   0  0  1  0  0  0  0  0  0  0  0  0
  128.6866  137.2710  132.7389 O   0  0  0  0  0  0  0  0  0  0  0  0
  129.0490  138.5982  132.5165 C   0  0  1  0  0  0  0  0  0  0  0  0
  127.9008  139.2499  131.7793 C   0  0  0  0  0  0  0  0  0  0  0  0
  128.1077  140.7455  131.7036 C   0  0  0  0  0  0  0  0  0  0  0  0
  128.0587  141.2837  133.1421 C   0  0  1  0  0  0  0  0  0  0  0  0
  126.8498  140.6781  133.7514 C   0  0  0  0  0  0  0  0  0  0  0  0
  126.6189  140.6010  134.9258 O   0  0  0  0  0  0  0  0  0  0  0  0
  129.2662  140.7322  133.8376 C   0  0  2  0  0  0  0  0  0  0  0  0
  130.5657  141.2942  133.2780 C   0  0  0  0  0  0  0  0  0  0  0  0
  130.4699  142.7508  132.9332 C   0  0  0  0  0  0  0  0  0  0  0  0
  129.3340  143.3576  133.7241 C   0  0  2  0  0  0  0  0  0  0  0  0
  128.0552  142.7758  133.1882 C   0  0  2  0  0  0  0  0  0  0  0  0
  126.8538  143.3681  133.8779 C   0  0  0  0  0  0  0  0  0  0  0  0
  127.1719  144.3849  134.9031 C   0  0  0  0  0  0  0  0  0  0  0  0
  128.2239  145.3816  134.5252 C   0  0  2  0  0  0  0  0  0  0  0  0
  128.8269  145.9035  135.8206 C   0  0  0  0  0  0  0  0  0  0  0  0
  127.6627  146.5700  133.7798 C   0  0  2  0  0  0  0  0  0  0  0  0
  128.7352  146.8972  132.7239 C   0  0  0  0  0  0  0  0  0  0  0  0
  129.1331  145.4560  132.3473 C   0  0  0  0  0  0  0  0  0  0  0  0
  129.3226  144.8497  133.6837 C   0  0  2  0  0  0  0  0  0  0  0  0
  130.5862  145.2964  134.1490 O   0  0  0  0  0  0  0  0  0  0  0  0
  127.4194  147.7523  134.6234 C   0  0  0  0  0  0  0  0  0  0  0  0
  126.2868  148.4569  134.7373 C   0  0  0  0  0  0  0  0  0  0  0  0
  126.4678  149.5417  135.6702 C   0  0  0  0  0  0  0  0  0  0  0  0
  125.6529  150.4333  136.0578 O   0  0  0  0  0  0  0  0  0  0  0  0
  127.7656  149.4790  136.1309 O   0  0  0  0  0  0  0  0  0  0  0  0
  128.3965  148.3876  135.5371 C   0  0  0  0  0  0  0  0  0  0  0  0
  129.3632  139.2364  133.8191 C   0  0  0  0  0  0  0  0  0  0  0  0
  129.1396  135.0284  132.2321 C   0  0  1  0  0  0  0  0  0  0  0  0
  128.8970  134.9796  133.6031 O   0  0  0  0  0  0  0  0  0  0  0  0
  1  2  1  0
  3  2  1  1
  3  4  1  0
  4  5  1  6
  4  6  1  0
  6  7  1  1
  6  8  1  0
  8  9  1  0
  9 10  1  1
 11 10  1  1
 11 12  1  0
 12 13  1  0
 13 14  1  0
 14 15  1  1
 15 16  2  0
 14 17  1  0
 17 18  1  6
 18 19  1  0
 20 19  1  6
 20 21  1  0
 21 22  1  1
 22 23  1  0
 23 24  1  0
 24 25  1  1
 24 26  1  0
 26 27  1  0
 27 28  1  0
 28 29  1  0
 29 30  1  1
 26 31  1  1
 31 32  2  0
 32 33  1  0
 33 34  2  0
 33 35  1  0
 35 36  1  0
 17 37  1  0
  9 38  1  0
 38 39  1  1
 38  3  1  0
 37 11  1  0
 21 14  1  0
 29 24  1  0
 36 31  1  0
 29 20  1  0
M  END
$$$$
