
     RDKit          3D

 39 44  0  0  0  0  0  0  0  0999 V2000
  152.2336  162.4555  121.2327 C   0  0  0  0  0  0  0  0  0  0  0  0
  152.4417  162.5003  122.6045 O   0  0  0  0  0  0  0  0  0  0  0  0
  151.2437  162.4179  123.2706 C   0  0  2  0  0  0  0  0  0  0  0  0
  150.0920  162.0763  122.3163 C   0  0  1  0  0  0  0  0  0  0  0  0
  150.2894  160.7979  121.8138 O   0  0  0  0  0  0  0  0  0  0  0  0
  148.8194  162.1962  123.1238 C   0  0  2  0  0  0  0  0  0  0  0  0
  147.9288  163.2966  122.5749 C   0  0  0  0  0  0  0  0  0  0  0  0
  149.0626  162.3471  124.4749 O   0  0  0  0  0  0  0  0  0  0  0  0
  149.6380  163.5997  124.6635 C   0  0  1  0  0  0  0  0  0  0  0  0
  149.9222  163.8666  125.9871 O   0  0  0  0  0  0  0  0  0  0  0  0
  149.2204  164.9660  126.4782 C   0  0  1  0  0  0  0  0  0  0  0  0
  147.7908  164.5188  126.6847 C   0  0  0  0  0  0  0  0  0  0  0  0
  147.0133  165.5769  127.4338 C   0  0  0  0  0  0  0  0  0  0  0  0
  147.6366  165.6919  128.8337 C   0  0  1  0  0  0  0  0  0  0  0  0
  147.7629  164.2991  129.3275 C   0  0  0  0  0  0  0  0  0  0  0  0
  148.7222  163.5916  129.1953 O   0  0  0  0  0  0  0  0  0  0  0  0
  149.0131  166.2505  128.6354 C   0  0  2  0  0  0  0  0  0  0  0  0
  148.9895  167.6841  128.1236 C   0  0  0  0  0  0  0  0  0  0  0  0
  147.9032  168.5082  128.7486 C   0  0  0  0  0  0  0  0  0  0  0  0
  147.5114  167.8699  130.0612 C   0  0  2  0  0  0  0  0  0  0  0  0
  146.8347  166.5660  129.7400 C   0  0  2  0  0  0  0  0  0  0  0  0
  146.3512  165.8785  130.9903 C   0  0  0  0  0  0  0  0  0  0  0  0
  146.6216  166.6167  132.2424 C   0  0  0  0  0  0  0  0  0  0  0  0
  146.3506  168.0890  132.2002 C   0  0  2  0  0  0  0  0  0  0  0  0
  147.2188  168.7312  133.2716 C   0  0  0  0  0  0  0  0  0  0  0  0
  144.9140  168.4287  132.5224 C   0  0  2  0  0  0  0  0  0  0  0  0
  144.5794  169.5988  131.5785 C   0  0  0  0  0  0  0  0  0  0  0  0
  145.3349  169.1072  130.3275 C   0  0  0  0  0  0  0  0  0  0  0  0
  146.6486  168.7477  130.9058 C   0  0  2  0  0  0  0  0  0  0  0  0
  147.3462  169.9675  131.1006 O   0  0  0  0  0  0  0  0  0  0  0  0
  144.6886  168.8373  133.9192 C   0  0  0  0  0  0  0  0  0  0  0  0
  143.5990  168.6257  134.6677 C   0  0  0  0  0  0  0  0  0  0  0  0
  143.7829  169.1870  135.9834 C   0  0  0  0  0  0  0  0  0  0  0  0
  143.0022  169.2041  136.9830 O   0  0  0  0  0  0  0  0  0  0  0  0
  145.0374  169.7576  136.0181 O   0  0  0  0  0  0  0  0  0  0  0  0
  145.6511  169.5588  134.7830 C   0  0  0  0  0  0  0  0  0  0  0  0
  149.8824  165.4456  127.7170 C   0  0  0  0  0  0  0  0  0  0  0  0
  150.9134  163.7604  123.8664 C   0  0  1  0  0  0  0  0  0  0  0  0
  151.9759  164.1669  124.6706 O   0  0  0  0  0  0  0  0  0  0  0  0
  1  2  1  0
  3  2  1  6
  3  4  1  0
  4  5  1  1
  4  6  1  0
  6  7  1  6
  6  8  1  0
  8  9  1  0
  9 10  1  1
 11 10  1  1
 11 12  1  0
 12 13  1  0
 13 14  1  0
 14 15  1  1
 15 16  2  0
 14 17  1  0
 17 18  1  6
 18 19  1  0
 20 19  1  6
 20 21  1  0
 21 22  1  1
 22 23  1  0
 23 24  1  0
 24 25  1  1
 24 26  1  0
 26 27  1  0
 27 28  1  0
 28 29  1  0
 29 30  1  1
 26 31  1  1
 31 32  2  0
 32 33  1  0
 33 34  2  0
 33 35  1  0
 35 36  1  0
 17 37  1  0
  9 38  1  0
 38 39  1  1
 38  3  1  0
 37 11  1  0
 21 14  1  0
 29 24  1  0
 36 31  1  0
 29 20  1  0
M  END
$$$$
