
     RDKit          3D

 39 44  0  0  0  0  0  0  0  0999 V2000
  165.6491  155.9339  108.1581 C   0  0  0  0  0  0  0  0  0  0  0  0
  165.9875  156.3902  109.4248 O   0  0  0  0  0  0  0  0  0  0  0  0
  167.2888  156.8284  109.4409 C   0  0  2  0  0  0  0  0  0  0  0  0
  168.2547  155.7402  108.9545 C   0  0  1  0  0  0  0  0  0  0  0  0
  168.0008  155.4805  107.6151 O   0  0  0  0  0  0  0  0  0  0  0  0
  169.6501  156.2716  109.1919 C   0  0  2  0  0  0  0  0  0  0  0  0
  170.3974  155.4089  110.1932 C   0  0  0  0  0  0  0  0  0  0  0  0
  169.6544  157.6061  109.5474 O   0  0  0  0  0  0  0  0  0  0  0  0
  169.0920  157.7075  110.8159 C   0  0  1  0  0  0  0  0  0  0  0  0
  169.0481  159.0055  111.2819 O   0  0  0  0  0  0  0  0  0  0  0  0
  170.2588  159.6772  111.1218 C   0  0  1  0  0  0  0  0  0  0  0  0
  170.1452  160.4921  109.8532 C   0  0  0  0  0  0  0  0  0  0  0  0
  171.3226  161.4317  109.7262 C   0  0  0  0  0  0  0  0  0  0  0  0
  171.2336  162.4304  110.8907 C   0  0  1  0  0  0  0  0  0  0  0  0
  169.8303  162.9102  110.8956 C   0  0  0  0  0  0  0  0  0  0  0  0
  169.3462  163.6728  110.1065 O   0  0  0  0  0  0  0  0  0  0  0  0
  171.4673  161.6384  112.1414 C   0  0  2  0  0  0  0  0  0  0  0  0
  172.8874  161.0966  112.2284 C   0  0  0  0  0  0  0  0  0  0  0  0
  173.9136  162.0679  111.7251 C   0  0  0  0  0  0  0  0  0  0  0  0
  173.3298  163.4602  111.7915 C   0  0  2  0  0  0  0  0  0  0  0  0
  172.2313  163.5339  110.7673 C   0  0  2  0  0  0  0  0  0  0  0  0
  171.6233  164.9115  110.7157 C   0  0  0  0  0  0  0  0  0  0  0  0
  172.2276  165.8861  111.6489 C   0  0  0  0  0  0  0  0  0  0  0  0
  173.7231  165.8710  111.7258 C   0  0  2  0  0  0  0  0  0  0  0  0
  174.1036  166.4370  113.0856 C   0  0  0  0  0  0  0  0  0  0  0  0
  174.3715  166.7451  110.6777 C   0  0  2  0  0  0  0  0  0  0  0  0
  175.6247  165.9589  110.2496 C   0  0  0  0  0  0  0  0  0  0  0  0
  175.0237  164.5392  110.2731 C   0  0  0  0  0  0  0  0  0  0  0  0
  174.3476  164.5333  111.5893 C   0  0  2  0  0  0  0  0  0  0  0  0
  175.3647  164.3415  112.5596 O   0  0  0  0  0  0  0  0  0  0  0  0
  174.7637  168.0793  111.1622 C   0  0  0  0  0  0  0  0  0  0  0  0
  174.4940  169.2650  110.6020 C   0  0  0  0  0  0  0  0  0  0  0  0
  175.0601  170.3292  111.3938 C   0  0  0  0  0  0  0  0  0  0  0  0
  175.0340  171.5850  111.2164 O   0  0  0  0  0  0  0  0  0  0  0  0
  175.6943  169.7502  112.4722 O   0  0  0  0  0  0  0  0  0  0  0  0
  175.5311  168.3685  112.3954 C   0  0  0  0  0  0  0  0  0  0  0  0
  170.5219  160.4914  112.3346 C   0  0  0  0  0  0  0  0  0  0  0  0
  167.6887  157.1446  110.8574 C   0  0  1  0  0  0  0  0  0  0  0  0
  166.7814  158.0608  111.3849 O   0  0  0  0  0  0  0  0  0  0  0  0
  1  2  1  0
  3  2  1  1
  3  4  1  0
  4  5  1  6
  4  6  1  0
  6  7  1  1
  6  8  1  0
  8  9  1  0
  9 10  1  6
 11 10  1  1
 11 12  1  0
 12 13  1  0
 13 14  1  0
 14 15  1  1
 15 16  2  0
 14 17  1  0
 17 18  1  6
 18 19  1  0
 20 19  1  6
 20 21  1  0
 21 22  1  1
 22 23  1  0
 23 24  1  0
 24 25  1  1
 24 26  1  0
 26 27  1  0
 27 28  1  0
 28 29  1  0
 29 30  1  1
 26 31  1  1
 31 32  2  0
 32 33  1  0
 33 34  2  0
 33 35  1  0
 35 36  1  0
 17 37  1  0
  9 38  1  0
 38 39  1  6
 38  3  1  0
 37 11  1  0
 21 14  1  0
 29 24  1  0
 36 31  1  0
 29 20  1  0
M  END
$$$$
