
     RDKit          3D

 39 44  0  0  0  0  0  0  0  0999 V2000
  159.2975  147.4832  123.9752 C   0  0  0  0  0  0  0  0  0  0  0  0
  160.2157  148.0386  124.8559 O   0  0  0  0  0  0  0  0  0  0  0  0
  161.4135  148.2559  124.2203 C   0  0  2  0  0  0  0  0  0  0  0  0
  161.2715  148.1377  122.6973 C   0  0  1  0  0  0  0  0  0  0  0  0
  160.4548  149.1629  122.2415 O   0  0  0  0  0  0  0  0  0  0  0  0
  162.6718  148.2114  122.1316 C   0  0  2  0  0  0  0  0  0  0  0  0
  163.0422  146.9185  121.4269 C   0  0  0  0  0  0  0  0  0  0  0  0
  163.6070  148.5748  123.0806 O   0  0  0  0  0  0  0  0  0  0  0  0
  163.7211  147.5244  123.9857 C   0  0  1  0  0  0  0  0  0  0  0  0
  164.6395  147.7735  124.9849 O   0  0  0  0  0  0  0  0  0  0  0  0
  165.9290  147.3684  124.6452 C   0  0  1  0  0  0  0  0  0  0  0  0
  166.7865  148.6133  124.6110 C   0  0  0  0  0  0  0  0  0  0  0  0
  168.2460  148.2415  124.4811 C   0  0  0  0  0  0  0  0  0  0  0  0
  168.6364  147.4829  125.7592 C   0  0  1  0  0  0  0  0  0  0  0  0
  168.1222  148.3050  126.8813 C   0  0  0  0  0  0  0  0  0  0  0  0
  168.5920  148.3613  127.9834 O   0  0  0  0  0  0  0  0  0  0  0  0
  167.8749  146.1924  125.7301 C   0  0  2  0  0  0  0  0  0  0  0  0
  168.3301  145.2751  124.6036 C   0  0  0  0  0  0  0  0  0  0  0  0
  169.8152  145.3015  124.3946 C   0  0  0  0  0  0  0  0  0  0  0  0
  170.4707  145.7820  125.6688 C   0  0  2  0  0  0  0  0  0  0  0  0
  170.1054  147.2304  125.8410 C   0  0  2  0  0  0  0  0  0  0  0  0
  170.7649  147.8193  127.0609 C   0  0  0  0  0  0  0  0  0  0  0  0
  171.6257  146.8788  127.8095 C   0  0  0  0  0  0  0  0  0  0  0  0
  172.5215  146.0144  126.9769 C   0  0  2  0  0  0  0  0  0  0  0  0
  172.8316  144.7734  127.8003 C   0  0  0  0  0  0  0  0  0  0  0  0
  173.8389  146.6791  126.6520 C   0  0  2  0  0  0  0  0  0  0  0  0
  174.1402  146.2392  125.2071 C   0  0  0  0  0  0  0  0  0  0  0  0
  172.7076  146.3120  124.6419 C   0  0  0  0  0  0  0  0  0  0  0  0
  171.9496  145.5792  125.6801 C   0  0  2  0  0  0  0  0  0  0  0  0
  172.1904  144.2000  125.4512 O   0  0  0  0  0  0  0  0  0  0  0  0
  174.9495  146.2821  127.5339 C   0  0  0  0  0  0  0  0  0  0  0  0
  175.9582  147.0450  127.9730 C   0  0  0  0  0  0  0  0  0  0  0  0
  176.8353  146.2718  128.8172 C   0  0  0  0  0  0  0  0  0  0  0  0
  177.8946  146.6114  129.4270 O   0  0  0  0  0  0  0  0  0  0  0  0
  176.3252  144.9927  128.8825 O   0  0  0  0  0  0  0  0  0  0  0  0
  175.1549  144.9412  128.1279 C   0  0  0  0  0  0  0  0  0  0  0  0
  166.3882  146.3521  125.6246 C   0  0  0  0  0  0  0  0  0  0  0  0
  162.3960  147.1937  124.6359 C   0  0  1  0  0  0  0  0  0  0  0  0
  162.4906  147.1904  126.0258 O   0  0  0  0  0  0  0  0  0  0  0  0
  1  2  1  0
  3  2  1  1
  3  4  1  0
  4  5  1  6
  4  6  1  0
  6  7  1  1
  6  8  1  0
  8  9  1  0
  9 10  1  1
 11 10  1  1
 11 12  1  0
 12 13  1  0
 13 14  1  0
 14 15  1  1
 15 16  2  0
 14 17  1  0
 17 18  1  6
 18 19  1  0
 20 19  1  6
 20 21  1  0
 21 22  1  1
 22 23  1  0
 23 24  1  0
 24 25  1  1
 24 26  1  0
 26 27  1  0
 27 28  1  0
 28 29  1  0
 29 30  1  6
 26 31  1  1
 31 32  2  0
 32 33  1  0
 33 34  2  0
 33 35  1  0
 35 36  1  0
 17 37  1  0
  9 38  1  0
 38 39  1  1
 38  3  1  0
 37 11  1  0
 21 14  1  0
 29 24  1  0
 36 31  1  0
 29 20  1  0
M  END
$$$$
