
     RDKit          3D

 39 44  0  0  0  0  0  0  0  0999 V2000
  121.0269  141.5695  136.7722 C   0  0  0  0  0  0  0  0  0  0  0  0
  122.3760  141.8926  136.8256 O   0  0  0  0  0  0  0  0  0  0  0  0
  123.1163  140.9594  136.1421 C   0  0  2  0  0  0  0  0  0  0  0  0
  122.3027  139.6883  135.8665 C   0  0  1  0  0  0  0  0  0  0  0  0
  121.2645  139.9989  134.9995 O   0  0  0  0  0  0  0  0  0  0  0  0
  123.2687  138.6818  135.2836 C   0  0  2  0  0  0  0  0  0  0  0  0
  123.4077  137.4728  136.1915 C   0  0  0  0  0  0  0  0  0  0  0  0
  124.4915  139.2424  134.9705 O   0  0  0  0  0  0  0  0  0  0  0  0
  125.1197  139.5807  136.1648 C   0  0  1  0  0  0  0  0  0  0  0  0
  126.3628  140.1490  135.9758 O   0  0  0  0  0  0  0  0  0  0  0  0
  127.1672  139.4107  135.1096 C   0  0  1  0  0  0  0  0  0  0  0  0
  126.6112  139.6081  133.7174 C   0  0  0  0  0  0  0  0  0  0  0  0
  127.5582  139.0343  132.6882 C   0  0  0  0  0  0  0  0  0  0  0  0
  128.8546  139.8566  132.7564 C   0  0  1  0  0  0  0  0  0  0  0  0
  128.4255  141.2762  132.7382 C   0  0  0  0  0  0  0  0  0  0  0  0
  129.1097  142.2202  133.0197 O   0  0  0  0  0  0  0  0  0  0  0  0
  129.4669  139.5643  134.0928 C   0  0  2  0  0  0  0  0  0  0  0  0
  129.9388  138.1219  134.2120 C   0  0  0  0  0  0  0  0  0  0  0  0
  130.5588  137.6051  132.9477 C   0  0  0  0  0  0  0  0  0  0  0  0
  131.0267  138.7840  132.1259 C   0  0  2  0  0  0  0  0  0  0  0  0
  129.8004  139.5145  131.6533 C   0  0  2  0  0  0  0  0  0  0  0  0
  130.1644  140.6797  130.7702 C   0  0  0  0  0  0  0  0  0  0  0  0
  131.6154  140.8507  130.5441 C   0  0  0  0  0  0  0  0  0  0  0  0
  132.3814  139.5952  130.2611 C   0  0  2  0  0  0  0  0  0  0  0  0
  133.8259  139.8568  130.6603 C   0  0  0  0  0  0  0  0  0  0  0  0
  132.3796  139.2267  128.7958 C   0  0  2  0  0  0  0  0  0  0  0  0
  132.2783  137.6900  128.7906 C   0  0  0  0  0  0  0  0  0  0  0  0
  131.2923  137.5214  129.9639 C   0  0  0  0  0  0  0  0  0  0  0  0
  131.9102  138.3922  130.9883 C   0  0  2  0  0  0  0  0  0  0  0  0
  132.9992  137.6613  131.5291 O   0  0  0  0  0  0  0  0  0  0  0  0
  133.5874  139.6473  128.0657 C   0  0  0  0  0  0  0  0  0  0  0  0
  134.0943  139.1142  126.9471 C   0  0  0  0  0  0  0  0  0  0  0  0
  135.2896  139.8206  126.5572 C   0  0  0  0  0  0  0  0  0  0  0  0
  136.0643  139.6367  125.5696 O   0  0  0  0  0  0  0  0  0  0  0  0
  135.5025  140.8176  127.4852 O   0  0  0  0  0  0  0  0  0  0  0  0
  134.4779  140.7736  128.4285 C   0  0  0  0  0  0  0  0  0  0  0  0
  128.5745  139.8573  135.2610 C   0  0  0  0  0  0  0  0  0  0  0  0
  124.2860  140.5358  136.9899 C   0  0  1  0  0  0  0  0  0  0  0  0
  125.0094  141.6695  137.3534 O   0  0  0  0  0  0  0  0  0  0  0  0
  1  2  1  0
  3  2  1  1
  3  4  1  0
  4  5  1  6
  4  6  1  0
  6  7  1  1
  6  8  1  0
  8  9  1  0
  9 10  1  6
 11 10  1  1
 11 12  1  0
 12 13  1  0
 13 14  1  0
 14 15  1  1
 15 16  2  0
 14 17  1  0
 17 18  1  6
 18 19  1  0
 20 19  1  6
 20 21  1  0
 21 22  1  1
 22 23  1  0
 23 24  1  0
 24 25  1  1
 24 26  1  0
 26 27  1  0
 27 28  1  0
 28 29  1  0
 29 30  1  1
 26 31  1  1
 31 32  2  0
 32 33  1  0
 33 34  2  0
 33 35  1  0
 35 36  1  0
 17 37  1  0
  9 38  1  0
 38 39  1  6
 38  3  1  0
 37 11  1  0
 21 14  1  0
 29 24  1  0
 36 31  1  0
 29 20  1  0
M  END
$$$$
