
     RDKit          3D

 39 44  0  0  0  0  0  0  0  0999 V2000
  118.1053  166.4482  143.9759 C   0  0  0  0  0  0  0  0  0  0  0  0
  118.2678  165.0798  143.8069 O   0  0  0  0  0  0  0  0  0  0  0  0
  118.6919  164.5026  144.9786 C   0  0  2  0  0  0  0  0  0  0  0  0
  117.5506  164.3961  145.9983 C   0  0  1  0  0  0  0  0  0  0  0  0
  116.5951  163.5148  145.5125 O   0  0  0  0  0  0  0  0  0  0  0  0
  118.1766  163.9240  147.2911 C   0  0  2  0  0  0  0  0  0  0  0  0
  118.0255  164.9693  148.3819 C   0  0  0  0  0  0  0  0  0  0  0  0
  119.4890  163.5256  147.1285 O   0  0  0  0  0  0  0  0  0  0  0  0
  120.2431  164.6599  146.8451 C   0  0  1  0  0  0  0  0  0  0  0  0
  121.5832  164.3834  146.6669 O   0  0  0  0  0  0  0  0  0  0  0  0
  122.3321  164.5745  147.8267 C   0  0  1  0  0  0  0  0  0  0  0  0
  122.7242  163.2030  148.3281 C   0  0  0  0  0  0  0  0  0  0  0  0
  123.7325  163.3225  149.4481 C   0  0  0  0  0  0  0  0  0  0  0  0
  125.0041  163.9436  148.8493 C   0  0  1  0  0  0  0  0  0  0  0  0
  125.2776  163.1727  147.6122 C   0  0  0  0  0  0  0  0  0  0  0  0
  124.6696  162.2098  147.2360 O   0  0  0  0  0  0  0  0  0  0  0  0
  124.6441  165.3462  148.4632 C   0  0  2  0  0  0  0  0  0  0  0  0
  124.3406  166.2211  149.6716 C   0  0  0  0  0  0  0  0  0  0  0  0
  125.2506  165.9479  150.8322 C   0  0  0  0  0  0  0  0  0  0  0  0
  126.5143  165.3042  150.3101 C   0  0  2  0  0  0  0  0  0  0  0  0
  126.1454  163.9344  149.8115 C   0  0  2  0  0  0  0  0  0  0  0  0
  127.3579  163.1858  149.3223 C   0  0  0  0  0  0  0  0  0  0  0  0
  128.6305  163.9284  149.4445 C   0  0  0  0  0  0  0  0  0  0  0  0
  128.8335  164.6619  150.7344 C   0  0  2  0  0  0  0  0  0  0  0  0
  129.8122  165.7921  150.4533 C   0  0  0  0  0  0  0  0  0  0  0  0
  129.4448  163.7949  151.8102 C   0  0  2  0  0  0  0  0  0  0  0  0
  128.7390  164.2411  153.1043 C   0  0  0  0  0  0  0  0  0  0  0  0
  127.3208  164.4426  152.5341 C   0  0  0  0  0  0  0  0  0  0  0  0
  127.6066  165.2477  151.3260 C   0  0  2  0  0  0  0  0  0  0  0  0
  127.8373  166.5734  151.7752 O   0  0  0  0  0  0  0  0  0  0  0  0
  130.9013  163.9536  151.9588 C   0  0  0  0  0  0  0  0  0  0  0  0
  131.8639  163.1516  151.4873 C   0  0  0  0  0  0  0  0  0  0  0  0
  133.1615  163.6640  151.8530 C   0  0  0  0  0  0  0  0  0  0  0  0
  134.3203  163.2104  151.6069 O   0  0  0  0  0  0  0  0  0  0  0  0
  132.9610  164.8218  152.5739 O   0  0  0  0  0  0  0  0  0  0  0  0
  131.5910  165.0627  152.6570 C   0  0  0  0  0  0  0  0  0  0  0  0
  123.4885  165.4508  147.5143 C   0  0  0  0  0  0  0  0  0  0  0  0
  119.7421  165.3765  145.6109 C   0  0  1  0  0  0  0  0  0  0  0  0
  120.7636  165.5883  144.6876 O   0  0  0  0  0  0  0  0  0  0  0  0
  1  2  1  0
  3  2  1  6
  3  4  1  0
  4  5  1  6
  4  6  1  0
  6  7  1  1
  6  8  1  0
  8  9  1  0
  9 10  1  6
 11 10  1  6
 11 12  1  0
 12 13  1  0
 13 14  1  0
 14 15  1  6
 15 16  2  0
 14 17  1  0
 17 18  1  1
 18 19  1  0
 20 19  1  1
 20 21  1  0
 21 22  1  6
 22 23  1  0
 23 24  1  0
 24 25  1  6
 24 26  1  0
 26 27  1  0
 27 28  1  0
 28 29  1  0
 29 30  1  1
 26 31  1  1
 31 32  2  0
 32 33  1  0
 33 34  2  0
 33 35  1  0
 35 36  1  0
 17 37  1  0
  9 38  1  0
 38 39  1  6
 38  3  1  0
 37 11  1  0
 21 14  1  0
 29 24  1  0
 36 31  1  0
 29 20  1  0
M  END
$$$$
