
     RDKit          3D

 39 44  0  0  0  0  0  0  0  0999 V2000
  108.5466  174.5276  145.3474 C   0  0  0  0  0  0  0  0  0  0  0  0
  109.3296  174.0306  144.3144 O   0  0  0  0  0  0  0  0  0  0  0  0
  108.9697  172.7376  144.0240 C   0  0  2  0  0  0  0  0  0  0  0  0
  108.0722  172.1445  145.1178 C   0  0  1  0  0  0  0  0  0  0  0  0
  106.8690  172.8359  145.1352 O   0  0  0  0  0  0  0  0  0  0  0  0
  107.8997  170.6808  144.7807 C   0  0  2  0  0  0  0  0  0  0  0  0
  108.4951  169.7994  145.8642 C   0  0  0  0  0  0  0  0  0  0  0  0
  108.3855  170.3661  143.5267 O   0  0  0  0  0  0  0  0  0  0  0  0
  109.7709  170.4871  143.5675 C   0  0  1  0  0  0  0  0  0  0  0  0
  110.3720  170.1891  142.3618 O   0  0  0  0  0  0  0  0  0  0  0  0
  111.1322  169.0220  142.4122 C   0  0  1  0  0  0  0  0  0  0  0  0
  111.6523  168.7751  141.0140 C   0  0  0  0  0  0  0  0  0  0  0  0
  112.6759  167.6628  141.0240 C   0  0  0  0  0  0  0  0  0  0  0  0
  113.8741  168.1562  141.8499 C   0  0  1  0  0  0  0  0  0  0  0  0
  114.1794  169.5130  141.3347 C   0  0  0  0  0  0  0  0  0  0  0  0
  113.6231  170.5267  141.6533 O   0  0  0  0  0  0  0  0  0  0  0  0
  113.3864  168.2845  143.2612 C   0  0  2  0  0  0  0  0  0  0  0  0
  113.0416  166.9374  143.8809 C   0  0  0  0  0  0  0  0  0  0  0  0
  114.0017  165.8533  143.4900 C   0  0  0  0  0  0  0  0  0  0  0  0
  115.3013  166.4946  143.0616 C   0  0  2  0  0  0  0  0  0  0  0  0
  115.0370  167.2233  141.7731 C   0  0  2  0  0  0  0  0  0  0  0  0
  116.2953  167.8504  141.2315 C   0  0  0  0  0  0  0  0  0  0  0  0
  117.5031  167.6127  142.0504 C   0  0  0  0  0  0  0  0  0  0  0  0
  117.6769  166.2159  142.5618 C   0  0  2  0  0  0  0  0  0  0  0  0
  118.5486  166.3036  143.8055 C   0  0  0  0  0  0  0  0  0  0  0  0
  118.3877  165.3169  141.5772 C   0  0  2  0  0  0  0  0  0  0  0  0
  117.6809  163.9566  141.7260 C   0  0  0  0  0  0  0  0  0  0  0  0
  116.2362  164.4668  141.8984 C   0  0  0  0  0  0  0  0  0  0  0  0
  116.4208  165.5167  142.9245 C   0  0  2  0  0  0  0  0  0  0  0  0
  116.5500  164.8429  144.1663 O   0  0  0  0  0  0  0  0  0  0  0  0
  119.8289  165.1585  141.8352 C   0  0  0  0  0  0  0  0  0  0  0  0
  120.8391  165.8380  141.2783 C   0  0  0  0  0  0  0  0  0  0  0  0
  122.0995  165.3758  141.8056 C   0  0  0  0  0  0  0  0  0  0  0  0
  123.2830  165.7512  141.5458 O   0  0  0  0  0  0  0  0  0  0  0  0
  121.8260  164.3775  142.7160 O   0  0  0  0  0  0  0  0  0  0  0  0
  120.4446  164.2105  142.7919 C   0  0  0  0  0  0  0  0  0  0  0  0
  112.2016  169.1874  143.4280 C   0  0  0  0  0  0  0  0  0  0  0  0
  110.2039  171.8768  143.9786 C   0  0  1  0  0  0  0  0  0  0  0  0
  111.1010  172.4281  143.0664 O   0  0  0  0  0  0  0  0  0  0  0  0
  1  2  1  0
  3  2  1  1
  3  4  1  0
  4  5  1  6
  4  6  1  0
  6  7  1  1
  6  8  1  0
  8  9  1  0
  9 10  1  6
 11 10  1  6
 11 12  1  0
 12 13  1  0
 13 14  1  0
 14 15  1  6
 15 16  2  0
 14 17  1  0
 17 18  1  6
 18 19  1  0
 20 19  1  6
 20 21  1  0
 21 22  1  1
 22 23  1  0
 23 24  1  0
 24 25  1  1
 24 26  1  0
 26 27  1  0
 27 28  1  0
 28 29  1  0
 29 30  1  1
 26 31  1  1
 31 32  2  0
 32 33  1  0
 33 34  2  0
 33 35  1  0
 35 36  1  0
 17 37  1  0
  9 38  1  0
 38 39  1  6
 38  3  1  0
 37 11  1  0
 21 14  1  0
 29 24  1  0
 36 31  1  0
 29 20  1  0
M  END
$$$$
