
     RDKit          3D

 39 44  0  0  0  0  0  0  0  0999 V2000
  156.2821  143.4981  123.6280 C   0  0  0  0  0  0  0  0  0  0  0  0
  156.4985  144.7961  123.1856 O   0  0  0  0  0  0  0  0  0  0  0  0
  157.8021  144.9504  122.7824 C   0  0  2  0  0  0  0  0  0  0  0  0
  158.3458  143.6702  122.1351 C   0  0  1  0  0  0  0  0  0  0  0  0
  157.6520  143.4332  120.9568 O   0  0  0  0  0  0  0  0  0  0  0  0
  159.8223  143.9018  121.9068 C   0  0  2  0  0  0  0  0  0  0  0  0
  160.6574  142.9287  122.7198 C   0  0  0  0  0  0  0  0  0  0  0  0
  160.1916  145.2147  122.1246 O   0  0  0  0  0  0  0  0  0  0  0  0
  160.0717  145.4670  123.4875 C   0  0  1  0  0  0  0  0  0  0  0  0
  160.4225  146.7574  123.8279 O   0  0  0  0  0  0  0  0  0  0  0  0
  161.7695  146.8790  124.1641 C   0  0  1  0  0  0  0  0  0  0  0  0
  162.2111  148.2554  123.7201 C   0  0  0  0  0  0  0  0  0  0  0  0
  163.5920  148.5608  124.2541 C   0  0  0  0  0  0  0  0  0  0  0  0
  163.4843  148.6148  125.7860 C   0  0  1  0  0  0  0  0  0  0  0  0
  162.3126  149.4781  126.0712 C   0  0  0  0  0  0  0  0  0  0  0  0
  161.4645  149.2624  126.8914 O   0  0  0  0  0  0  0  0  0  0  0  0
  163.1651  147.2206  126.2335 C   0  0  2  0  0  0  0  0  0  0  0  0
  164.3118  146.2523  125.9786 C   0  0  0  0  0  0  0  0  0  0  0  0
  165.6574  146.8601  126.2428 C   0  0  0  0  0  0  0  0  0  0  0  0
  165.4791  148.0313  127.1811 C   0  0  2  0  0  0  0  0  0  0  0  0
  164.7424  149.1021  126.4249 C   0  0  2  0  0  0  0  0  0  0  0  0
  164.5679  150.3418  127.2630 C   0  0  0  0  0  0  0  0  0  0  0  0
  165.1557  150.2570  128.6170 C   0  0  0  0  0  0  0  0  0  0  0  0
  166.5189  149.6420  128.6962 C   0  0  2  0  0  0  0  0  0  0  0  0
  166.6785  149.0962  130.1072 C   0  0  0  0  0  0  0  0  0  0  0  0
  167.6269  150.6451  128.4742 C   0  0  2  0  0  0  0  0  0  0  0  0
  168.6839  149.8706  127.6650 C   0  0  0  0  0  0  0  0  0  0  0  0
  167.7330  149.0690  126.7537 C   0  0  0  0  0  0  0  0  0  0  0  0
  166.7678  148.5361  127.7405 C   0  0  2  0  0  0  0  0  0  0  0  0
  167.4105  147.4436  128.3777 O   0  0  0  0  0  0  0  0  0  0  0  0
  168.2309  151.1621  129.7137 C   0  0  0  0  0  0  0  0  0  0  0  0
  168.5428  152.4312  130.0042 C   0  0  0  0  0  0  0  0  0  0  0  0
  169.1170  152.5122  131.3248 C   0  0  0  0  0  0  0  0  0  0  0  0
  169.5418  153.5165  131.9730 O   0  0  0  0  0  0  0  0  0  0  0  0
  169.1477  151.2347  131.8417 O   0  0  0  0  0  0  0  0  0  0  0  0
  168.5988  150.3619  130.9043 C   0  0  0  0  0  0  0  0  0  0  0  0
  161.9257  146.6414  125.6208 C   0  0  0  0  0  0  0  0  0  0  0  0
  158.6664  145.2139  123.9865 C   0  0  1  0  0  0  0  0  0  0  0  0
  158.1566  146.3148  124.6713 O   0  0  0  0  0  0  0  0  0  0  0  0
  1  2  1  0
  3  2  1  1
  3  4  1  0
  4  5  1  6
  4  6  1  0
  6  7  1  1
  6  8  1  0
  8  9  1  0
  9 10  1  6
 11 10  1  1
 11 12  1  0
 12 13  1  0
 13 14  1  0
 14 15  1  6
 15 16  2  0
 14 17  1  0
 17 18  1  6
 18 19  1  0
 20 19  1  6
 20 21  1  0
 21 22  1  1
 22 23  1  0
 23 24  1  0
 24 25  1  1
 24 26  1  0
 26 27  1  0
 27 28  1  0
 28 29  1  0
 29 30  1  1
 26 31  1  1
 31 32  2  0
 32 33  1  0
 33 34  2  0
 33 35  1  0
 35 36  1  0
 17 37  1  0
  9 38  1  0
 38 39  1  6
 38  3  1  0
 37 11  1  0
 21 14  1  0
 29 24  1  0
 36 31  1  0
 29 20  1  0
M  END
$$$$
