
     RDKit          3D

 39 44  0  0  0  0  0  0  0  0999 V2000
  189.2966  157.0662  117.7081 C   0  0  0  0  0  0  0  0  0  0  0  0
  189.0517  158.3897  118.0481 O   0  0  0  0  0  0  0  0  0  0  0  0
  189.8251  158.7561  119.1220 C   0  0  2  0  0  0  0  0  0  0  0  0
  191.2820  158.3094  118.9443 C   0  0  1  0  0  0  0  0  0  0  0  0
  191.8363  159.0000  117.8758 O   0  0  0  0  0  0  0  0  0  0  0  0
  191.9801  158.6012  120.2533 C   0  0  2  0  0  0  0  0  0  0  0  0
  192.4724  157.3209  120.9042 C   0  0  0  0  0  0  0  0  0  0  0  0
  191.2036  159.3568  121.1098 O   0  0  0  0  0  0  0  0  0  0  0  0
  190.1391  158.5636  121.5260 C   0  0  1  0  0  0  0  0  0  0  0  0
  189.2912  159.2162  122.3974 O   0  0  0  0  0  0  0  0  0  0  0  0
  189.5445  158.9038  123.7318 C   0  0  1  0  0  0  0  0  0  0  0  0
  191.0117  159.1758  123.9763 C   0  0  0  0  0  0  0  0  0  0  0  0
  191.3223  159.0879  125.4532 C   0  0  0  0  0  0  0  0  0  0  0  0
  190.5511  160.2215  126.1471 C   0  0  1  0  0  0  0  0  0  0  0  0
  190.8298  161.4388  125.3470 C   0  0  0  0  0  0  0  0  0  0  0  0
  190.1897  162.4529  125.3655 O   0  0  0  0  0  0  0  0  0  0  0  0
  189.0971  159.8861  126.0080 C   0  0  2  0  0  0  0  0  0  0  0  0
  188.7105  158.6418  126.7952 C   0  0  0  0  0  0  0  0  0  0  0  0
  189.4002  158.5554  128.1243 C   0  0  0  0  0  0  0  0  0  0  0  0
  189.8362  159.9444  128.5300 C   0  0  2  0  0  0  0  0  0  0  0  0
  190.9274  160.3645  127.5846 C   0  0  2  0  0  0  0  0  0  0  0  0
  191.4722  161.7217  127.9470 C   0  0  0  0  0  0  0  0  0  0  0  0
  190.8473  162.3381  129.1367 C   0  0  0  0  0  0  0  0  0  0  0  0
  190.6314  161.4249  130.3039 C   0  0  2  0  0  0  0  0  0  0  0  0
  189.4943  162.0145  131.1246 C   0  0  0  0  0  0  0  0  0  0  0  0
  191.8389  161.3355  131.2077 C   0  0  2  0  0  0  0  0  0  0  0  0
  191.8755  159.8601  131.6479 C   0  0  0  0  0  0  0  0  0  0  0  0
  191.4557  159.2123  130.3133 C   0  0  0  0  0  0  0  0  0  0  0  0
  190.2752  160.0288  129.9542 C   0  0  2  0  0  0  0  0  0  0  0  0
  189.2046  159.5571  130.7568 O   0  0  0  0  0  0  0  0  0  0  0  0
  191.7715  162.2061  132.3936 C   0  0  0  0  0  0  0  0  0  0  0  0
  192.5526  163.2537  132.6847 C   0  0  0  0  0  0  0  0  0  0  0  0
  192.1549  163.8359  133.9429 C   0  0  0  0  0  0  0  0  0  0  0  0
  192.6291  164.8305  134.5714 O   0  0  0  0  0  0  0  0  0  0  0  0
  191.0905  163.1015  134.4205 O   0  0  0  0  0  0  0  0  0  0  0  0
  190.7959  162.0957  133.5022 C   0  0  0  0  0  0  0  0  0  0  0  0
  188.6363  159.7007  124.5937 C   0  0  0  0  0  0  0  0  0  0  0  0
  189.3190  158.0619  120.3582 C   0  0  1  0  0  0  0  0  0  0  0  0
  187.9662  158.3555  120.5146 O   0  0  0  0  0  0  0  0  0  0  0  0
  1  2  1  0
  3  2  1  6
  3  4  1  0
  4  5  1  6
  4  6  1  0
  6  7  1  1
  6  8  1  0
  8  9  1  0
  9 10  1  1
 11 10  1  6
 11 12  1  0
 12 13  1  0
 13 14  1  0
 14 15  1  6
 15 16  2  0
 14 17  1  0
 17 18  1  1
 18 19  1  0
 20 19  1  6
 20 21  1  0
 21 22  1  1
 22 23  1  0
 23 24  1  0
 24 25  1  1
 24 26  1  0
 26 27  1  0
 27 28  1  0
 28 29  1  0
 29 30  1  1
 26 31  1  1
 31 32  2  0
 32 33  1  0
 33 34  2  0
 33 35  1  0
 35 36  1  0
 17 37  1  0
  9 38  1  0
 38 39  1  1
 38  3  1  0
 37 11  1  0
 21 14  1  0
 29 24  1  0
 36 31  1  0
 29 20  1  0
M  END
$$$$
