
     RDKit          3D

 39 44  0  0  0  0  0  0  0  0999 V2000
  178.1499  163.2597  142.0027 C   0  0  0  0  0  0  0  0  0  0  0  0
  178.6650  163.1129  140.7220 O   0  0  0  0  0  0  0  0  0  0  0  0
  179.6806  162.1885  140.7205 C   0  0  2  0  0  0  0  0  0  0  0  0
  179.8705  161.5595  142.1068 C   0  0  1  0  0  0  0  0  0  0  0  0
  178.7394  160.8204  142.4234 O   0  0  0  0  0  0  0  0  0  0  0  0
  181.1184  160.7100  142.0223 C   0  0  2  0  0  0  0  0  0  0  0  0
  182.1951  161.2308  142.9575 C   0  0  0  0  0  0  0  0  0  0  0  0
  181.5758  160.5698  140.7267 O   0  0  0  0  0  0  0  0  0  0  0  0
  182.0474  161.8100  140.3083 C   0  0  1  0  0  0  0  0  0  0  0  0
  182.5393  161.7909  139.0193 O   0  0  0  0  0  0  0  0  0  0  0  0
  183.9258  161.9231  138.9692 C   0  0  1  0  0  0  0  0  0  0  0  0
  184.4998  160.5248  138.9305 C   0  0  0  0  0  0  0  0  0  0  0  0
  185.9825  160.5743  138.6397 C   0  0  0  0  0  0  0  0  0  0  0  0
  186.1481  161.1488  137.2241 C   0  0  1  0  0  0  0  0  0  0  0  0
  185.1962  160.3924  136.3749 C   0  0  0  0  0  0  0  0  0  0  0  0
  185.3315  159.2591  136.0065 O   0  0  0  0  0  0  0  0  0  0  0  0
  185.6908  162.5743  137.2938 C   0  0  2  0  0  0  0  0  0  0  0  0
  186.6069  163.4366  138.1509 C   0  0  0  0  0  0  0  0  0  0  0  0
  188.0576  163.0976  137.9765 C   0  0  0  0  0  0  0  0  0  0  0  0
  188.2323  162.4077  136.6433 C   0  0  2  0  0  0  0  0  0  0  0  0
  187.5585  161.0671  136.7418 C   0  0  2  0  0  0  0  0  0  0  0  0
  187.7307  160.2740  135.4724 C   0  0  0  0  0  0  0  0  0  0  0  0
  188.5199  160.9547  134.4238 C   0  0  0  0  0  0  0  0  0  0  0  0
  189.7602  161.6509  134.8929 C   0  0  2  0  0  0  0  0  0  0  0  0
  190.0689  162.7405  133.8773 C   0  0  0  0  0  0  0  0  0  0  0  0
  190.9601  160.7343  134.9477 C   0  0  2  0  0  0  0  0  0  0  0  0
  191.7254  161.1852  136.2059 C   0  0  0  0  0  0  0  0  0  0  0  0
  190.5167  161.4635  137.1218 C   0  0  0  0  0  0  0  0  0  0  0  0
  189.6616  162.2797  136.2319 C   0  0  2  0  0  0  0  0  0  0  0  0
  190.2202  163.5838  136.2276 O   0  0  0  0  0  0  0  0  0  0  0  0
  191.8420  160.8229  133.7716 C   0  0  0  0  0  0  0  0  0  0  0  0
  192.4937  159.8256  133.1609 C   0  0  0  0  0  0  0  0  0  0  0  0
  193.2514  160.3365  132.0453 C   0  0  0  0  0  0  0  0  0  0  0  0
  193.9972  159.7319  131.2160 O   0  0  0  0  0  0  0  0  0  0  0  0
  193.0407  161.6978  131.9907 O   0  0  0  0  0  0  0  0  0  0  0  0
  192.1673  162.0544  133.0162 C   0  0  0  0  0  0  0  0  0  0  0  0
  184.2884  162.7517  137.7924 C   0  0  0  0  0  0  0  0  0  0  0  0
  180.9777  162.8765  140.3883 C   0  0  1  0  0  0  0  0  0  0  0  0
  180.8301  163.5502  139.1779 O   0  0  0  0  0  0  0  0  0  0  0  0
  1  2  1  0
  3  2  1  1
  3  4  1  0
  4  5  1  6
  4  6  1  0
  6  7  1  1
  6  8  1  0
  8  9  1  0
  9 10  1  6
 11 10  1  6
 11 12  1  0
 12 13  1  0
 13 14  1  0
 14 15  1  6
 15 16  2  0
 14 17  1  0
 17 18  1  1
 18 19  1  0
 20 19  1  1
 20 21  1  0
 21 22  1  6
 22 23  1  0
 23 24  1  0
 24 25  1  6
 24 26  1  0
 26 27  1  0
 27 28  1  0
 28 29  1  0
 29 30  1  6
 26 31  1  6
 31 32  2  0
 32 33  1  0
 33 34  2  0
 33 35  1  0
 35 36  1  0
 17 37  1  0
  9 38  1  0
 38 39  1  6
 38  3  1  0
 37 11  1  0
 21 14  1  0
 29 24  1  0
 36 31  1  0
 29 20  1  0
M  END
$$$$
