
     RDKit          3D

 39 44  0  0  0  0  0  0  0  0999 V2000
  187.5137  163.3634  109.3304 C   0  0  0  0  0  0  0  0  0  0  0  0
  188.0370  162.1889  109.8539 O   0  0  0  0  0  0  0  0  0  0  0  0
  188.7713  162.4567  110.9829 C   0  0  2  0  0  0  0  0  0  0  0  0
  189.5431  163.7761  110.8520 C   0  0  1  0  0  0  0  0  0  0  0  0
  188.6346  164.8228  110.7821 O   0  0  0  0  0  0  0  0  0  0  0  0
  190.4441  163.8650  112.0629 C   0  0  2  0  0  0  0  0  0  0  0  0
  191.9063  163.8585  111.6543 C   0  0  0  0  0  0  0  0  0  0  0  0
  190.1613  162.8953  113.0048 O   0  0  0  0  0  0  0  0  0  0  0  0
  190.5271  161.6650  112.4680 C   0  0  1  0  0  0  0  0  0  0  0  0
  190.2940  160.6123  113.3290 O   0  0  0  0  0  0  0  0  0  0  0  0
  191.0318  160.7063  114.5077 C   0  0  1  0  0  0  0  0  0  0  0  0
  190.2073  161.5205  115.4790 C   0  0  0  0  0  0  0  0  0  0  0  0
  190.8250  161.4750  116.8580 C   0  0  0  0  0  0  0  0  0  0  0  0
  190.7484  160.0183  117.3415 C   0  0  1  0  0  0  0  0  0  0  0  0
  189.3539  159.5863  117.0802 C   0  0  0  0  0  0  0  0  0  0  0  0
  188.4656  159.5561  117.8855 O   0  0  0  0  0  0  0  0  0  0  0  0
  191.6622  159.2322  116.4509 C   0  0  2  0  0  0  0  0  0  0  0  0
  193.1249  159.6079  116.6434 C   0  0  0  0  0  0  0  0  0  0  0  0
  193.4766  159.8649  118.0787 C   0  0  0  0  0  0  0  0  0  0  0  0
  192.4625  159.1653  118.9540 C   0  0  2  0  0  0  0  0  0  0  0  0
  191.1495  159.8752  118.7722 C   0  0  2  0  0  0  0  0  0  0  0  0
  190.0815  159.2840  119.6554 C   0  0  0  0  0  0  0  0  0  0  0  0
  190.5376  158.1658  120.5082 C   0  0  0  0  0  0  0  0  0  0  0  0
  191.8614  158.3599  121.1813 C   0  0  2  0  0  0  0  0  0  0  0  0
  192.4197  156.9747  121.4707 C   0  0  0  0  0  0  0  0  0  0  0  0
  191.7451  159.0829  122.5029 C   0  0  2  0  0  0  0  0  0  0  0  0
  192.9881  159.9910  122.5498 C   0  0  0  0  0  0  0  0  0  0  0  0
  193.0179  160.4153  121.0678 C   0  0  0  0  0  0  0  0  0  0  0  0
  192.8668  159.1088  120.3898 C   0  0  2  0  0  0  0  0  0  0  0  0
  194.1369  158.4795  120.4485 O   0  0  0  0  0  0  0  0  0  0  0  0
  191.7338  158.1953  123.6780 C   0  0  0  0  0  0  0  0  0  0  0  0
  191.4224  158.5135  124.9405 C   0  0  0  0  0  0  0  0  0  0  0  0
  191.5370  157.3527  125.7886 C   0  0  0  0  0  0  0  0  0  0  0  0
  191.3337  157.2250  127.0342 O   0  0  0  0  0  0  0  0  0  0  0  0
  191.9343  156.2979  124.9948 O   0  0  0  0  0  0  0  0  0  0  0  0
  192.0544  156.7495  123.6820 C   0  0  0  0  0  0  0  0  0  0  0  0
  191.3458  159.3380  114.9896 C   0  0  0  0  0  0  0  0  0  0  0  0
  189.8063  161.3795  111.1692 C   0  0  1  0  0  0  0  0  0  0  0  0
  189.1655  160.1428  111.1966 O   0  0  0  0  0  0  0  0  0  0  0  0
  1  2  1  0
  3  2  1  6
  3  4  1  0
  4  5  1  1
  4  6  1  0
  6  7  1  6
  6  8  1  0
  8  9  1  0
  9 10  1  1
 11 10  1  6
 11 12  1  0
 12 13  1  0
 13 14  1  0
 14 15  1  1
 15 16  2  0
 14 17  1  0
 17 18  1  6
 18 19  1  0
 20 19  1  6
 20 21  1  0
 21 22  1  1
 22 23  1  0
 23 24  1  0
 24 25  1  1
 24 26  1  0
 26 27  1  0
 27 28  1  0
 28 29  1  0
 29 30  1  6
 26 31  1  1
 31 32  2  0
 32 33  1  0
 33 34  2  0
 33 35  1  0
 35 36  1  0
 17 37  1  0
  9 38  1  0
 38 39  1  1
 38  3  1  0
 37 11  1  0
 21 14  1  0
 29 24  1  0
 36 31  1  0
 29 20  1  0
M  END
$$$$
