
     RDKit          3D

 58 67  0  0  0  0  0  0  0  0999 V2000
  143.9059  180.1843  136.6709 C   0  0  0  0  0  0  0  0  0  0  0  0
  143.8391  179.6828  135.2643 C   0  0  0  0  0  0  0  0  0  0  0  0
  143.6163  180.4451  134.1367 C   0  0  0  0  0  0  0  0  0  0  0  0
  143.6328  179.5887  133.1008 N   0  0  0  0  0  0  0  0  0  0  0  0
  143.8518  178.3377  133.5068 C   0  0  0  0  0  0  0  0  0  0  0  0
  143.9494  177.1629  132.7882 C   0  0  0  0  0  0  0  0  0  0  0  0
  143.8066  177.1752  131.4138 O   0  0  0  0  0  0  0  0  0  0  0  0
  144.1871  176.0027  133.4550 C   0  0  0  0  0  0  0  0  0  0  0  0
  144.3280  176.0123  134.8448 C   0  0  0  0  0  0  0  0  0  0  0  0
  144.5824  174.9444  135.7361 N   0  0  0  0  0  0  0  0  0  0  0  0
  144.0714  175.3817  137.0392 C   0  0  0  0  0  0  0  0  0  0  0  0
  144.4221  176.8601  137.0018 C   0  0  1  0  0  0  0  0  0  0  0  0
  145.8769  176.9774  137.3857 C   0  0  0  0  0  0  0  0  0  0  0  0
  146.7919  175.6628  136.6085 Cl  0  0  0  0  0  0  0  0  0  0  0  0
  144.2263  177.2030  135.5521 C   0  0  0  0  0  0  0  0  0  0  0  0
  143.9856  178.3802  134.8821 C   0  0  0  0  0  0  0  0  0  0  0  0
  145.1949  173.6941  135.4725 C   0  0  0  0  0  0  0  0  0  0  0  0
  146.1544  173.3365  136.1969 O   0  0  0  0  0  0  0  0  0  0  0  0
  144.7529  172.8190  134.4006 C   0  0  0  0  0  0  0  0  0  0  0  0
  145.3477  172.7675  133.1372 C   0  0  0  0  0  0  0  0  0  0  0  0
  144.6832  171.8216  132.3481 C   0  0  0  0  0  0  0  0  0  0  0  0
  144.8439  171.3767  131.0678 C   0  0  0  0  0  0  0  0  0  0  0  0
  144.0264  170.3987  130.5094 C   0  0  0  0  0  0  0  0  0  0  0  0
  144.2395  170.0075  129.1488 N   0  0  0  0  0  0  0  0  0  0  0  0
  145.3136  169.2481  128.7129 C   0  0  0  0  0  0  0  0  0  0  0  0
  146.1024  168.6463  129.5051 O   0  0  0  0  0  0  0  0  0  0  0  0
  145.6413  169.0606  127.3260 N   0  0  0  0  0  0  0  0  0  0  0  0
  146.4008  167.9116  126.9777 C   0  0  0  0  0  0  0  0  0  0  0  0
  146.8488  167.7258  125.6728 C   0  0  0  0  0  0  0  0  0  0  0  0
  147.6541  166.6406  125.4207 C   0  0  0  0  0  0  0  0  0  0  0  0
  148.0148  165.7608  126.4114 C   0  0  0  0  0  0  0  0  0  0  0  0
  148.7933  164.6746  126.4180 N   0  0  0  0  0  0  0  0  0  0  0  0
  148.8779  164.1364  127.6685 C   0  0  0  0  0  0  0  0  0  0  0  0
  148.1167  164.9197  128.4737 C   0  0  0  0  0  0  0  0  0  0  0  0
  147.5705  165.9354  127.7188 C   0  0  0  0  0  0  0  0  0  0  0  0
  146.7646  167.0208  127.9683 C   0  0  0  0  0  0  0  0  0  0  0  0
  149.7106  162.9753  127.9364 C   0  0  0  0  0  0  0  0  0  0  0  0
  150.9678  163.1934  127.9708 O   0  0  0  0  0  0  0  0  0  0  0  0
  149.2736  161.6916  128.1471 N   0  0  0  0  0  0  0  0  0  0  0  0
  150.0142  160.3996  128.3587 C   0  0  0  0  0  0  0  0  0  0  0  0
  149.2246  159.7378  127.1490 C   0  0  1  0  0  0  0  0  0  0  0  0
  149.9763  158.7636  126.4868 C   0  0  0  0  0  0  0  0  0  0  0  0
  151.1698  159.3945  125.3506 Cl  0  0  0  0  0  0  0  0  0  0  0  0
  147.9176  159.8654  127.7137 C   0  0  0  0  0  0  0  0  0  0  0  0
  146.7411  159.1432  127.8245 C   0  0  0  0  0  0  0  0  0  0  0  0
  146.4291  157.8371  127.5616 C   0  0  0  0  0  0  0  0  0  0  0  0
  147.2910  156.7422  127.0905 C   0  0  0  0  0  0  0  0  0  0  0  0
  145.0735  157.6944  127.9279 C   0  0  0  0  0  0  0  0  0  0  0  0
  144.6337  158.8575  128.3810 N   0  0  0  0  0  0  0  0  0  0  0  0
  145.6292  159.7957  128.3418 C   0  0  0  0  0  0  0  0  0  0  0  0
  145.6100  161.1095  128.7607 C   0  0  0  0  0  0  0  0  0  0  0  0
  144.4741  161.6857  129.2576 O   0  0  0  0  0  0  0  0  0  0  0  0
  146.7834  161.8145  128.6573 C   0  0  0  0  0  0  0  0  0  0  0  0
  147.9065  161.2212  128.1555 C   0  0  0  0  0  0  0  0  0  0  0  0
  143.0444  169.9005  131.3144 C   0  0  0  0  0  0  0  0  0  0  0  0
  142.8800  170.3614  132.6364 C   0  0  0  0  0  0  0  0  0  0  0  0
  143.6896  171.3238  133.1754 C   0  0  0  0  0  0  0  0  0  0  0  0
  143.7581  171.9265  134.3656 N   0  0  0  0  0  0  0  0  0  0  0  0
  1  2  1  0
  2  3  2  0
  3  4  1  0
  4  5  1  0
  5  6  2  0
  6  7  1  0
  6  8  1  0
  8  9  2  0
  9 10  1  0
 10 11  1  0
 11 12  1  0
 12 13  1  6
 13 14  1  0
 12 15  1  0
 15 16  2  0
 10 17  1  0
 17 18  2  0
 17 19  1  0
 19 20  2  0
 20 21  1  0
 21 22  2  0
 22 23  1  0
 23 24  1  0
 24 25  1  0
 25 26  2  0
 25 27  1  0
 27 28  1  0
 28 29  2  0
 29 30  1  0
 30 31  2  0
 31 32  1  0
 32 33  1  0
 33 34  2  0
 34 35  1  0
 35 36  2  0
 33 37  1  0
 37 38  2  0
 37 39  1  0
 39 40  1  0
 40 41  1  0
 41 42  1  1
 42 43  1  0
 41 44  1  0
 44 45  2  0
 45 46  1  0
 46 47  1  0
 46 48  2  0
 48 49  1  0
 49 50  1  0
 50 51  2  0
 51 52  1  0
 51 53  1  0
 53 54  2  0
 23 55  2  0
 55 56  1  0
 56 57  2  0
 57 58  1  0
 16  2  1  0
 58 19  1  0
 16  5  1  0
 57 21  1  0
 15  9  1  0
 36 28  1  0
 54 39  1  0
 35 31  1  0
 54 44  1  0
 50 45  1  0
M  END
$$$$
