
     RDKit          3D

 58 67  0  0  0  0  0  0  0  0999 V2000
  142.5317  148.1952  123.0807 C   0  0  0  0  0  0  0  0  0  0  0  0
  141.7383  148.3560  121.8240 C   0  0  0  0  0  0  0  0  0  0  0  0
  142.1674  148.9600  120.6606 C   0  0  0  0  0  0  0  0  0  0  0  0
  141.1365  148.8845  119.8015 N   0  0  0  0  0  0  0  0  0  0  0  0
  140.0880  148.2716  120.3518 C   0  0  0  0  0  0  0  0  0  0  0  0
  138.8420  147.9806  119.8332 C   0  0  0  0  0  0  0  0  0  0  0  0
  138.5253  148.3469  118.5390 O   0  0  0  0  0  0  0  0  0  0  0  0
  137.9401  147.3312  120.6156 C   0  0  0  0  0  0  0  0  0  0  0  0
  138.2805  146.9700  121.9213 C   0  0  0  0  0  0  0  0  0  0  0  0
  137.5182  146.2926  122.9009 N   0  0  0  0  0  0  0  0  0  0  0  0
  138.0940  146.6796  124.1929 C   0  0  0  0  0  0  0  0  0  0  0  0
  139.5699  146.7527  123.8372 C   0  0  1  0  0  0  0  0  0  0  0  0
  140.1021  145.3410  123.8744 C   0  0  0  0  0  0  0  0  0  0  0  0
  138.9565  144.2646  123.0387 Cl  0  0  0  0  0  0  0  0  0  0  0  0
  139.5382  147.2710  122.4273 C   0  0  0  0  0  0  0  0  0  0  0  0
  140.4548  147.9284  121.6397 C   0  0  0  0  0  0  0  0  0  0  0  0
  136.4182  145.4175  122.7220 C   0  0  0  0  0  0  0  0  0  0  0  0
  135.9104  145.3254  121.5788 O   0  0  0  0  0  0  0  0  0  0  0  0
  135.8632  144.6292  123.8085 C   0  0  0  0  0  0  0  0  0  0  0  0
  134.4980  144.3848  123.9798 C   0  0  0  0  0  0  0  0  0  0  0  0
  134.3061  143.5927  125.1176 C   0  0  0  0  0  0  0  0  0  0  0  0
  133.2051  143.0695  125.7315 C   0  0  0  0  0  0  0  0  0  0  0  0
  133.2911  142.2924  126.8828 C   0  0  0  0  0  0  0  0  0  0  0  0
  132.0870  141.8054  127.4849 N   0  0  0  0  0  0  0  0  0  0  0  0
  131.5943  140.5209  127.3192 C   0  0  0  0  0  0  0  0  0  0  0  0
  132.3388  139.5184  127.0891 O   0  0  0  0  0  0  0  0  0  0  0  0
  130.1971  140.1914  127.3946 N   0  0  0  0  0  0  0  0  0  0  0  0
  129.8520  138.8628  127.7605 C   0  0  0  0  0  0  0  0  0  0  0  0
  130.4144  137.7754  127.0979 C   0  0  0  0  0  0  0  0  0  0  0  0
  130.1086  136.5168  127.5585 C   0  0  0  0  0  0  0  0  0  0  0  0
  129.2790  136.3215  128.6351 C   0  0  0  0  0  0  0  0  0  0  0  0
  128.8660  135.2215  129.2719 N   0  0  0  0  0  0  0  0  0  0  0  0
  128.0564  135.5356  130.3238 C   0  0  0  0  0  0  0  0  0  0  0  0
  127.9591  136.8889  130.3401 C   0  0  0  0  0  0  0  0  0  0  0  0
  128.7089  137.4013  129.3032 C   0  0  0  0  0  0  0  0  0  0  0  0
  129.0156  138.6589  128.8403 C   0  0  0  0  0  0  0  0  0  0  0  0
  127.5227  134.5056  131.2000 C   0  0  0  0  0  0  0  0  0  0  0  0
  127.0242  133.4866  130.6148 O   0  0  0  0  0  0  0  0  0  0  0  0
  127.5044  134.5335  132.5719 N   0  0  0  0  0  0  0  0  0  0  0  0
  127.0207  133.5387  133.5912 C   0  0  0  0  0  0  0  0  0  0  0  0
  126.0843  134.6456  134.2411 C   0  0  1  0  0  0  0  0  0  0  0  0
  124.9271  134.1043  134.8071 C   0  0  0  0  0  0  0  0  0  0  0  0
  125.2085  132.9967  136.1515 Cl  0  0  0  0  0  0  0  0  0  0  0  0
  127.1285  135.5452  134.6205 C   0  0  0  0  0  0  0  0  0  0  0  0
  127.4780  136.3710  135.6759 C   0  0  0  0  0  0  0  0  0  0  0  0
  126.9911  136.5029  136.9478 C   0  0  0  0  0  0  0  0  0  0  0  0
  125.9219  135.7546  137.6264 C   0  0  0  0  0  0  0  0  0  0  0  0
  127.8027  137.4818  137.5603 C   0  0  0  0  0  0  0  0  0  0  0  0
  128.7099  137.8861  136.6856 N   0  0  0  0  0  0  0  0  0  0  0  0
  128.5570  137.2272  135.4959 C   0  0  0  0  0  0  0  0  0  0  0  0
  129.3126  137.3125  134.3454 C   0  0  0  0  0  0  0  0  0  0  0  0
  130.3611  138.1836  134.2406 O   0  0  0  0  0  0  0  0  0  0  0  0
  128.9658  136.4825  133.3083 C   0  0  0  0  0  0  0  0  0  0  0  0
  127.9132  135.6212  133.4321 C   0  0  0  0  0  0  0  0  0  0  0  0
  134.5453  142.0768  127.3736 C   0  0  0  0  0  0  0  0  0  0  0  0
  135.6812  142.6183  126.7383 C   0  0  0  0  0  0  0  0  0  0  0  0
  135.5851  143.3812  125.6064 C   0  0  0  0  0  0  0  0  0  0  0  0
  136.4702  143.9992  124.8196 N   0  0  0  0  0  0  0  0  0  0  0  0
  1  2  1  0
  2  3  2  0
  3  4  1  0
  4  5  1  0
  5  6  2  0
  6  7  1  0
  6  8  1  0
  8  9  2  0
  9 10  1  0
 10 11  1  0
 11 12  1  0
 12 13  1  6
 13 14  1  0
 12 15  1  0
 15 16  2  0
 10 17  1  0
 17 18  2  0
 17 19  1  0
 19 20  2  0
 20 21  1  0
 21 22  2  0
 22 23  1  0
 23 24  1  0
 24 25  1  0
 25 26  2  0
 25 27  1  0
 27 28  1  0
 28 29  2  0
 29 30  1  0
 30 31  2  0
 31 32  1  0
 32 33  1  0
 33 34  2  0
 34 35  1  0
 35 36  2  0
 33 37  1  0
 37 38  2  0
 37 39  1  0
 39 40  1  0
 40 41  1  0
 41 42  1  1
 42 43  1  0
 41 44  1  0
 44 45  2  0
 45 46  1  0
 46 47  1  0
 46 48  2  0
 48 49  1  0
 49 50  1  0
 50 51  2  0
 51 52  1  0
 51 53  1  0
 53 54  2  0
 23 55  2  0
 55 56  1  0
 56 57  2  0
 57 58  1  0
 16  2  1  0
 58 19  1  0
 16  5  1  0
 57 21  1  0
 15  9  1  0
 36 28  1  0
 54 39  1  0
 35 31  1  0
 54 44  1  0
 50 45  1  0
M  END
$$$$
