
     RDKit          3D

 58 67  0  0  0  0  0  0  0  0999 V2000
  172.8157  149.2671  138.2035 C   0  0  0  0  0  0  0  0  0  0  0  0
  171.5440  148.6006  137.7874 C   0  0  0  0  0  0  0  0  0  0  0  0
  170.5758  148.0943  138.6290 C   0  0  0  0  0  0  0  0  0  0  0  0
  169.6198  147.5871  137.8319 N   0  0  0  0  0  0  0  0  0  0  0  0
  169.9267  147.7431  136.5438 C   0  0  0  0  0  0  0  0  0  0  0  0
  169.2372  147.3789  135.4043 C   0  0  0  0  0  0  0  0  0  0  0  0
  168.0184  146.7357  135.5055 O   0  0  0  0  0  0  0  0  0  0  0  0
  169.7775  147.6640  134.1903 C   0  0  0  0  0  0  0  0  0  0  0  0
  171.0110  148.3148  134.1103 C   0  0  0  0  0  0  0  0  0  0  0  0
  171.7518  148.7137  132.9738 N   0  0  0  0  0  0  0  0  0  0  0  0
  173.1466  148.8033  133.4178 C   0  0  0  0  0  0  0  0  0  0  0  0
  172.9635  149.3416  134.8273 C   0  0  1  0  0  0  0  0  0  0  0  0
  172.7683  150.8333  134.7071 C   0  0  0  0  0  0  0  0  0  0  0  0
  171.7854  151.1774  133.2632 Cl  0  0  0  0  0  0  0  0  0  0  0  0
  171.6913  148.6735  135.2665 C   0  0  0  0  0  0  0  0  0  0  0  0
  171.1490  148.3872  136.4980 C   0  0  0  0  0  0  0  0  0  0  0  0
  171.2901  148.9787  131.6606 C   0  0  0  0  0  0  0  0  0  0  0  0
  172.0094  148.6285  130.6945 O   0  0  0  0  0  0  0  0  0  0  0  0
  170.0222  149.6366  131.3970 C   0  0  0  0  0  0  0  0  0  0  0  0
  168.8553  148.9650  131.0228 C   0  0  0  0  0  0  0  0  0  0  0  0
  167.8202  149.8911  130.8505 C   0  0  0  0  0  0  0  0  0  0  0  0
  166.5054  149.7862  130.4993 C   0  0  0  0  0  0  0  0  0  0  0  0
  165.6689  150.8939  130.3994 C   0  0  0  0  0  0  0  0  0  0  0  0
  164.3087  150.7042  129.9950 N   0  0  0  0  0  0  0  0  0  0  0  0
  163.8666  150.7709  128.6834 C   0  0  0  0  0  0  0  0  0  0  0  0
  162.6534  150.9785  128.3717 O   0  0  0  0  0  0  0  0  0  0  0  0
  164.7320  150.6173  127.5460 N   0  0  0  0  0  0  0  0  0  0  0  0
  164.1338  150.6201  126.2574 C   0  0  0  0  0  0  0  0  0  0  0  0
  163.3654  151.7008  125.8340 C   0  0  0  0  0  0  0  0  0  0  0  0
  162.8895  151.6821  124.5445 C   0  0  0  0  0  0  0  0  0  0  0  0
  163.1549  150.6406  123.6898 C   0  0  0  0  0  0  0  0  0  0  0  0
  162.8355  150.4143  122.4120 N   0  0  0  0  0  0  0  0  0  0  0  0
  163.3586  149.2328  121.9750 C   0  0  0  0  0  0  0  0  0  0  0  0
  164.0295  148.6997  123.0270 C   0  0  0  0  0  0  0  0  0  0  0  0
  163.9196  149.5537  124.1034 C   0  0  0  0  0  0  0  0  0  0  0  0
  164.3937  149.5744  125.3937 C   0  0  0  0  0  0  0  0  0  0  0  0
  163.1877  148.7939  120.5996 C   0  0  0  0  0  0  0  0  0  0  0  0
  162.0488  149.0405  120.0786 O   0  0  0  0  0  0  0  0  0  0  0  0
  164.1219  148.1477  119.8295 N   0  0  0  0  0  0  0  0  0  0  0  0
  164.0737  147.6214  118.4213 C   0  0  0  0  0  0  0  0  0  0  0  0
  164.5065  146.1813  118.9345 C   0  0  1  0  0  0  0  0  0  0  0  0
  163.9834  145.1519  118.1476 C   0  0  0  0  0  0  0  0  0  0  0  0
  162.3635  145.4523  117.5161 Cl  0  0  0  0  0  0  0  0  0  0  0  0
  165.7758  146.5685  119.4659 C   0  0  0  0  0  0  0  0  0  0  0  0
  167.0774  146.1007  119.5356 C   0  0  0  0  0  0  0  0  0  0  0  0
  167.7282  145.0781  118.9009 C   0  0  0  0  0  0  0  0  0  0  0  0
  167.2341  144.1399  117.8815 C   0  0  0  0  0  0  0  0  0  0  0  0
  169.0618  145.1409  119.3587 C   0  0  0  0  0  0  0  0  0  0  0  0
  169.1698  146.1500  120.2081 N   0  0  0  0  0  0  0  0  0  0  0  0
  167.9664  146.7847  120.3553 C   0  0  0  0  0  0  0  0  0  0  0  0
  167.6517  147.9010  121.1013 C   0  0  0  0  0  0  0  0  0  0  0  0
  168.5813  148.5208  121.8892 O   0  0  0  0  0  0  0  0  0  0  0  0
  166.3620  148.3642  121.0176 C   0  0  0  0  0  0  0  0  0  0  0  0
  165.4475  147.7291  120.2267 C   0  0  0  0  0  0  0  0  0  0  0  0
  166.2345  152.1045  130.6730 C   0  0  0  0  0  0  0  0  0  0  0  0
  167.5926  152.2108  131.0353 C   0  0  0  0  0  0  0  0  0  0  0  0
  168.4063  151.1149  131.1304 C   0  0  0  0  0  0  0  0  0  0  0  0
  169.6913  150.9311  131.4459 N   0  0  0  0  0  0  0  0  0  0  0  0
  1  2  1  0
  2  3  2  0
  3  4  1  0
  4  5  1  0
  5  6  2  0
  6  7  1  0
  6  8  1  0
  8  9  2  0
  9 10  1  0
 10 11  1  0
 11 12  1  0
 12 13  1  6
 13 14  1  0
 12 15  1  0
 15 16  2  0
 10 17  1  0
 17 18  2  0
 17 19  1  0
 19 20  2  0
 20 21  1  0
 21 22  2  0
 22 23  1  0
 23 24  1  0
 24 25  1  0
 25 26  2  0
 25 27  1  0
 27 28  1  0
 28 29  2  0
 29 30  1  0
 30 31  2  0
 31 32  1  0
 32 33  1  0
 33 34  2  0
 34 35  1  0
 35 36  2  0
 33 37  1  0
 37 38  2  0
 37 39  1  0
 39 40  1  0
 40 41  1  0
 41 42  1  6
 42 43  1  0
 41 44  1  0
 44 45  2  0
 45 46  1  0
 46 47  1  0
 46 48  2  0
 48 49  1  0
 49 50  1  0
 50 51  2  0
 51 52  1  0
 51 53  1  0
 53 54  2  0
 23 55  2  0
 55 56  1  0
 56 57  2  0
 57 58  1  0
 16  2  1  0
 58 19  1  0
 16  5  1  0
 57 21  1  0
 15  9  1  0
 36 28  1  0
 54 39  1  0
 35 31  1  0
 54 44  1  0
 50 45  1  0
M  END
$$$$
