
     RDKit          3D

 58 67  0  0  0  0  0  0  0  0999 V2000
  182.5813  151.3206  130.1928 C   0  0  0  0  0  0  0  0  0  0  0  0
  182.5820  152.1822  131.4144 C   0  0  0  0  0  0  0  0  0  0  0  0
  181.5882  152.2445  132.3686 C   0  0  0  0  0  0  0  0  0  0  0  0
  182.0017  153.1452  133.2766 N   0  0  0  0  0  0  0  0  0  0  0  0
  183.1918  153.6519  132.9526 C   0  0  0  0  0  0  0  0  0  0  0  0
  183.9757  154.5889  133.5957 C   0  0  0  0  0  0  0  0  0  0  0  0
  183.5448  155.1627  134.7766 O   0  0  0  0  0  0  0  0  0  0  0  0
  185.1710  154.9328  133.0478 C   0  0  0  0  0  0  0  0  0  0  0  0
  185.5878  154.3409  131.8531 C   0  0  0  0  0  0  0  0  0  0  0  0
  186.7772  154.5354  131.1134 N   0  0  0  0  0  0  0  0  0  0  0  0
  186.4586  154.1464  129.7358 C   0  0  0  0  0  0  0  0  0  0  0  0
  185.5212  152.9751  129.9794 C   0  0  1  0  0  0  0  0  0  0  0  0
  186.3856  151.7700  130.2590 C   0  0  0  0  0  0  0  0  0  0  0  0
  185.9673  151.1121  131.8594 Cl  0  0  0  0  0  0  0  0  0  0  0  0
  184.7865  153.4004  131.2192 C   0  0  0  0  0  0  0  0  0  0  0  0
  183.5756  153.0489  131.7693 C   0  0  0  0  0  0  0  0  0  0  0  0
  188.0352  155.0082  131.5624 C   0  0  0  0  0  0  0  0  0  0  0  0
  189.0318  154.2564  131.4410 O   0  0  0  0  0  0  0  0  0  0  0  0
  188.2089  156.3236  132.1536 C   0  0  0  0  0  0  0  0  0  0  0  0
  188.0363  156.5996  133.5126 C   0  0  0  0  0  0  0  0  0  0  0  0
  188.2820  157.9574  133.7467 C   0  0  0  0  0  0  0  0  0  0  0  0
  188.2603  158.7444  134.8617 C   0  0  0  0  0  0  0  0  0  0  0  0
  188.5545  160.1040  134.8214 C   0  0  0  0  0  0  0  0  0  0  0  0
  188.4798  160.8680  136.0299 N   0  0  0  0  0  0  0  0  0  0  0  0
  187.2979  161.3036  136.6074 C   0  0  0  0  0  0  0  0  0  0  0  0
  186.1902  160.7021  136.4547 O   0  0  0  0  0  0  0  0  0  0  0  0
  187.2049  162.4728  137.4384 N   0  0  0  0  0  0  0  0  0  0  0  0
  186.2551  162.4570  138.4947 C   0  0  0  0  0  0  0  0  0  0  0  0
  184.9057  162.6841  138.2392 C   0  0  0  0  0  0  0  0  0  0  0  0
  184.0264  162.5664  139.2893 C   0  0  0  0  0  0  0  0  0  0  0  0
  184.4484  162.2354  140.5534 C   0  0  0  0  0  0  0  0  0  0  0  0
  183.7958  162.0371  141.7026 N   0  0  0  0  0  0  0  0  0  0  0  0
  184.6548  161.6901  142.7038 C   0  0  0  0  0  0  0  0  0  0  0  0
  185.8955  161.6749  142.1543 C   0  0  0  0  0  0  0  0  0  0  0  0
  185.7954  162.0089  140.8207 C   0  0  0  0  0  0  0  0  0  0  0  0
  186.6729  162.1281  139.7692 C   0  0  0  0  0  0  0  0  0  0  0  0
  184.1716  161.3739  144.0379 C   0  0  0  0  0  0  0  0  0  0  0  0
  184.0507  162.3666  144.8312 O   0  0  0  0  0  0  0  0  0  0  0  0
  183.8448  160.1279  144.5110 N   0  0  0  0  0  0  0  0  0  0  0  0
  183.1129  159.6821  145.7472 C   0  0  0  0  0  0  0  0  0  0  0  0
  184.3414  158.7600  146.1535 C   0  0  1  0  0  0  0  0  0  0  0  0
  184.4742  158.6226  147.5377 C   0  0  0  0  0  0  0  0  0  0  0  0
  183.2525  157.6041  148.3016 Cl  0  0  0  0  0  0  0  0  0  0  0  0
  184.3003  157.9117  145.0036 C   0  0  0  0  0  0  0  0  0  0  0  0
  184.4415  156.5741  144.6738 C   0  0  0  0  0  0  0  0  0  0  0  0
  184.4995  155.4358  145.4307 C   0  0  0  0  0  0  0  0  0  0  0  0
  184.3935  155.2709  146.8885 C   0  0  0  0  0  0  0  0  0  0  0  0
  184.5966  154.3745  144.5052 C   0  0  0  0  0  0  0  0  0  0  0  0
  184.5900  154.8791  143.2817 N   0  0  0  0  0  0  0  0  0  0  0  0
  184.4930  156.2435  143.3254 C   0  0  0  0  0  0  0  0  0  0  0  0
  184.4073  157.1480  142.2880 C   0  0  0  0  0  0  0  0  0  0  0  0
  184.4688  156.7474  140.9823 O   0  0  0  0  0  0  0  0  0  0  0  0
  184.2566  158.4705  142.6241 C   0  0  0  0  0  0  0  0  0  0  0  0
  184.2001  158.8504  143.9347 C   0  0  0  0  0  0  0  0  0  0  0  0
  188.8695  160.6178  133.5978 C   0  0  0  0  0  0  0  0  0  0  0  0
  188.8912  159.8034  132.4474 C   0  0  0  0  0  0  0  0  0  0  0  0
  188.6000  158.4674  132.4984 C   0  0  0  0  0  0  0  0  0  0  0  0
  188.5483  157.4881  131.5912 N   0  0  0  0  0  0  0  0  0  0  0  0
  1  2  1  0
  2  3  2  0
  3  4  1  0
  4  5  1  0
  5  6  2  0
  6  7  1  0
  6  8  1  0
  8  9  2  0
  9 10  1  0
 10 11  1  0
 11 12  1  0
 12 13  1  1
 13 14  1  0
 12 15  1  0
 15 16  2  0
 10 17  1  0
 17 18  2  0
 17 19  1  0
 19 20  2  0
 20 21  1  0
 21 22  2  0
 22 23  1  0
 23 24  1  0
 24 25  1  0
 25 26  2  0
 25 27  1  0
 27 28  1  0
 28 29  2  0
 29 30  1  0
 30 31  2  0
 31 32  1  0
 32 33  1  0
 33 34  2  0
 34 35  1  0
 35 36  2  0
 33 37  1  0
 37 38  2  0
 37 39  1  0
 39 40  1  0
 40 41  1  0
 41 42  1  1
 42 43  1  0
 41 44  1  0
 44 45  2  0
 45 46  1  0
 46 47  1  0
 46 48  2  0
 48 49  1  0
 49 50  1  0
 50 51  2  0
 51 52  1  0
 51 53  1  0
 53 54  2  0
 23 55  2  0
 55 56  1  0
 56 57  2  0
 57 58  1  0
 16  2  1  0
 58 19  1  0
 16  5  1  0
 57 21  1  0
 15  9  1  0
 36 28  1  0
 54 39  1  0
 35 31  1  0
 54 44  1  0
 50 45  1  0
M  END
$$$$
