
     RDKit          3D

 58 67  0  0  0  0  0  0  0  0999 V2000
  216.8500  138.8830  132.1451 C   0  0  0  0  0  0  0  0  0  0  0  0
  217.5386  137.6451  131.6675 C   0  0  0  0  0  0  0  0  0  0  0  0
  218.8638  137.5394  131.3005 C   0  0  0  0  0  0  0  0  0  0  0  0
  219.0471  136.2584  130.9373 N   0  0  0  0  0  0  0  0  0  0  0  0
  217.9211  135.5537  131.0532 C   0  0  0  0  0  0  0  0  0  0  0  0
  217.6626  134.2222  130.7950 C   0  0  0  0  0  0  0  0  0  0  0  0
  218.6687  133.3964  130.3309 O   0  0  0  0  0  0  0  0  0  0  0  0
  216.4080  133.7438  131.0053 C   0  0  0  0  0  0  0  0  0  0  0  0
  215.4053  134.5956  131.4747 C   0  0  0  0  0  0  0  0  0  0  0  0
  214.0496  134.3219  131.7688 N   0  0  0  0  0  0  0  0  0  0  0  0
  213.3499  135.6059  131.6578 C   0  0  0  0  0  0  0  0  0  0  0  0
  214.4020  136.5531  132.2111 C   0  0  1  0  0  0  0  0  0  0  0  0
  214.3095  136.4833  133.7159 C   0  0  0  0  0  0  0  0  0  0  0  0
  212.6778  136.9834  134.2227 Cl  0  0  0  0  0  0  0  0  0  0  0  0
  215.6825  135.9325  131.7287 C   0  0  0  0  0  0  0  0  0  0  0  0
  216.9507  136.4220  131.5174 C   0  0  0  0  0  0  0  0  0  0  0  0
  213.4452  133.0843  132.1018 C   0  0  0  0  0  0  0  0  0  0  0  0
  214.0067  132.3584  132.9568 O   0  0  0  0  0  0  0  0  0  0  0  0
  212.2071  132.6312  131.4920 C   0  0  0  0  0  0  0  0  0  0  0  0
  211.1956  133.4863  131.0467 C   0  0  0  0  0  0  0  0  0  0  0  0
  210.1477  132.7286  130.5114 C   0  0  0  0  0  0  0  0  0  0  0  0
  208.9448  133.0426  129.9480 C   0  0  0  0  0  0  0  0  0  0  0  0
  208.0634  132.0721  129.4809 C   0  0  0  0  0  0  0  0  0  0  0  0
  206.8065  132.4809  128.9306 N   0  0  0  0  0  0  0  0  0  0  0  0
  205.7002  132.8342  129.6865 C   0  0  0  0  0  0  0  0  0  0  0  0
  205.5686  132.5199  130.9096 O   0  0  0  0  0  0  0  0  0  0  0  0
  204.5949  133.5930  129.1680 N   0  0  0  0  0  0  0  0  0  0  0  0
  203.3768  133.5666  129.8986 C   0  0  0  0  0  0  0  0  0  0  0  0
  202.2881  132.8323  129.4368 C   0  0  0  0  0  0  0  0  0  0  0  0
  201.1698  132.7748  130.2342 C   0  0  0  0  0  0  0  0  0  0  0  0
  201.1127  133.4135  131.4484 C   0  0  0  0  0  0  0  0  0  0  0  0
  200.1700  133.4788  132.3934 N   0  0  0  0  0  0  0  0  0  0  0  0
  200.5887  134.2237  133.4567 C   0  0  0  0  0  0  0  0  0  0  0  0
  201.8446  134.6423  133.1588 C   0  0  0  0  0  0  0  0  0  0  0  0
  202.1942  134.1528  131.9186 C   0  0  0  0  0  0  0  0  0  0  0  0
  203.3110  134.2095  131.1191 C   0  0  0  0  0  0  0  0  0  0  0  0
  199.7529  134.3970  134.6334 C   0  0  0  0  0  0  0  0  0  0  0  0
  198.9997  135.4275  134.6290 O   0  0  0  0  0  0  0  0  0  0  0  0
  199.7061  133.5698  135.7274 N   0  0  0  0  0  0  0  0  0  0  0  0
  198.5747  132.8144  136.3690 C   0  0  0  0  0  0  0  0  0  0  0  0
  198.8916  133.5057  137.7641 C   0  0  1  0  0  0  0  0  0  0  0  0
  197.7503  133.6684  138.5537 C   0  0  0  0  0  0  0  0  0  0  0  0
  196.5361  132.4013  138.3704 Cl  0  0  0  0  0  0  0  0  0  0  0  0
  200.2158  132.9872  137.9098 C   0  0  0  0  0  0  0  0  0  0  0  0
  201.0435  132.4681  138.8913 C   0  0  0  0  0  0  0  0  0  0  0  0
  200.8099  132.0531  140.1740 C   0  0  0  0  0  0  0  0  0  0  0  0
  199.5482  131.9978  140.9282 C   0  0  0  0  0  0  0  0  0  0  0  0
  202.0517  131.5759  140.6457 C   0  0  0  0  0  0  0  0  0  0  0  0
  202.9485  131.7070  139.6813 N   0  0  0  0  0  0  0  0  0  0  0  0
  202.3769  132.2550  138.5651 C   0  0  0  0  0  0  0  0  0  0  0  0
  202.9386  132.5156  137.3329 C   0  0  0  0  0  0  0  0  0  0  0  0
  204.2630  132.2822  137.0863 O   0  0  0  0  0  0  0  0  0  0  0  0
  202.1083  133.0197  136.3628 C   0  0  0  0  0  0  0  0  0  0  0  0
  200.7888  133.2484  136.6302 C   0  0  0  0  0  0  0  0  0  0  0  0
  208.4657  130.7758  129.6155 C   0  0  0  0  0  0  0  0  0  0  0  0
  209.7084  130.4536  130.1979 C   0  0  0  0  0  0  0  0  0  0  0  0
  210.5674  131.4160  130.6540 C   0  0  0  0  0  0  0  0  0  0  0  0
  211.7729  131.3943  131.2293 N   0  0  0  0  0  0  0  0  0  0  0  0
  1  2  1  0
  2  3  2  0
  3  4  1  0
  4  5  1  0
  5  6  2  0
  6  7  1  0
  6  8  1  0
  8  9  2  0
  9 10  1  0
 10 11  1  0
 11 12  1  0
 12 13  1  1
 13 14  1  0
 12 15  1  0
 15 16  2  0
 10 17  1  0
 17 18  2  0
 17 19  1  0
 19 20  2  0
 20 21  1  0
 21 22  2  0
 22 23  1  0
 23 24  1  0
 24 25  1  0
 25 26  2  0
 25 27  1  0
 27 28  1  0
 28 29  2  0
 29 30  1  0
 30 31  2  0
 31 32  1  0
 32 33  1  0
 33 34  2  0
 34 35  1  0
 35 36  2  0
 33 37  1  0
 37 38  2  0
 37 39  1  0
 39 40  1  0
 40 41  1  0
 41 42  1  1
 42 43  1  0
 41 44  1  0
 44 45  2  0
 45 46  1  0
 46 47  1  0
 46 48  2  0
 48 49  1  0
 49 50  1  0
 50 51  2  0
 51 52  1  0
 51 53  1  0
 53 54  2  0
 23 55  2  0
 55 56  1  0
 56 57  2  0
 57 58  1  0
 16  2  1  0
 58 19  1  0
 16  5  1  0
 57 21  1  0
 15  9  1  0
 36 28  1  0
 54 39  1  0
 35 31  1  0
 54 44  1  0
 50 45  1  0
M  END
$$$$
