
     RDKit          3D

 58 67  0  0  0  0  0  0  0  0999 V2000
  136.9817  135.9857  133.2478 C   0  0  0  0  0  0  0  0  0  0  0  0
  137.1531  137.1298  132.3011 C   0  0  0  0  0  0  0  0  0  0  0  0
  138.3446  137.7360  131.9621 C   0  0  0  0  0  0  0  0  0  0  0  0
  138.0301  138.7120  131.0930 N   0  0  0  0  0  0  0  0  0  0  0  0
  136.7171  138.7564  130.8652 C   0  0  0  0  0  0  0  0  0  0  0  0
  135.9730  139.5874  130.0515 C   0  0  0  0  0  0  0  0  0  0  0  0
  136.5955  140.5742  129.3110 O   0  0  0  0  0  0  0  0  0  0  0  0
  134.6259  139.4163  129.9940 C   0  0  0  0  0  0  0  0  0  0  0  0
  134.0165  138.4128  130.7509 C   0  0  0  0  0  0  0  0  0  0  0  0
  132.6527  138.0507  130.8430 N   0  0  0  0  0  0  0  0  0  0  0  0
  132.5039  137.3818  132.1396 C   0  0  0  0  0  0  0  0  0  0  0  0
  133.8249  136.6353  132.2288 C   0  0  1  0  0  0  0  0  0  0  0  0
  133.6741  135.3745  131.4131 C   0  0  0  0  0  0  0  0  0  0  0  0
  133.3936  134.0010  132.5106 Cl  0  0  0  0  0  0  0  0  0  0  0  0
  134.7800  137.5862  131.5646 C   0  0  0  0  0  0  0  0  0  0  0  0
  136.1439  137.7552  131.6267 C   0  0  0  0  0  0  0  0  0  0  0  0
  131.6103  138.2697  129.9085 C   0  0  0  0  0  0  0  0  0  0  0  0
  130.4816  137.7787  130.1494 O   0  0  0  0  0  0  0  0  0  0  0  0
  131.8026  139.0379  128.6907 C   0  0  0  0  0  0  0  0  0  0  0  0
  131.7192  140.4312  128.6233 C   0  0  0  0  0  0  0  0  0  0  0  0
  131.9581  140.8487  127.3089 C   0  0  0  0  0  0  0  0  0  0  0  0
  132.0001  142.0676  126.6962 C   0  0  0  0  0  0  0  0  0  0  0  0
  132.2687  142.2114  125.3382 C   0  0  0  0  0  0  0  0  0  0  0  0
  132.2645  143.5226  124.7634 N   0  0  0  0  0  0  0  0  0  0  0  0
  133.4004  144.2889  124.5565 C   0  0  0  0  0  0  0  0  0  0  0  0
  133.4128  145.3233  123.8203 O   0  0  0  0  0  0  0  0  0  0  0  0
  134.6743  143.9963  125.1546 N   0  0  0  0  0  0  0  0  0  0  0  0
  135.8052  144.7142  124.6814 C   0  0  0  0  0  0  0  0  0  0  0  0
  137.0877  144.3776  125.1052 C   0  0  0  0  0  0  0  0  0  0  0  0
  138.1456  145.0509  124.5420 C   0  0  0  0  0  0  0  0  0  0  0  0
  137.9607  146.0246  123.5915 C   0  0  0  0  0  0  0  0  0  0  0  0
  138.8127  146.7805  122.8925 N   0  0  0  0  0  0  0  0  0  0  0  0
  138.1489  147.6004  122.0277 C   0  0  0  0  0  0  0  0  0  0  0  0
  136.8270  147.3456  122.1984 C   0  0  0  0  0  0  0  0  0  0  0  0
  136.6828  146.3711  123.1626 C   0  0  0  0  0  0  0  0  0  0  0  0
  135.6265  145.6969  123.7278 C   0  0  0  0  0  0  0  0  0  0  0  0
  138.8663  148.4824  121.1217 C   0  0  0  0  0  0  0  0  0  0  0  0
  139.0199  148.0459  119.9321 O   0  0  0  0  0  0  0  0  0  0  0  0
  139.3856  149.7153  121.4275 N   0  0  0  0  0  0  0  0  0  0  0  0
  140.6789  150.1290  122.0745 C   0  0  0  0  0  0  0  0  0  0  0  0
  139.8777  150.9574  123.1684 C   0  0  1  0  0  0  0  0  0  0  0  0
  140.5424  151.0076  124.3965 C   0  0  0  0  0  0  0  0  0  0  0  0
  139.7423  150.1396  125.7079 Cl  0  0  0  0  0  0  0  0  0  0  0  0
  139.2552  151.8712  122.2623 C   0  0  0  0  0  0  0  0  0  0  0  0
  138.9354  153.2157  122.1736 C   0  0  0  0  0  0  0  0  0  0  0  0
  139.2968  154.3038  122.9203 C   0  0  0  0  0  0  0  0  0  0  0  0
  140.2003  154.3903  124.0779 C   0  0  0  0  0  0  0  0  0  0  0  0
  138.6831  155.4095  122.2933 C   0  0  0  0  0  0  0  0  0  0  0  0
  138.0089  154.9770  121.2397 N   0  0  0  0  0  0  0  0  0  0  0  0
  138.1320  153.6198  121.1148 C   0  0  0  0  0  0  0  0  0  0  0  0
  137.6330  152.7824  120.1393 C   0  0  0  0  0  0  0  0  0  0  0  0
  136.8442  153.2532  119.1268 O   0  0  0  0  0  0  0  0  0  0  0  0
  137.9640  151.4530  120.2291 C   0  0  0  0  0  0  0  0  0  0  0  0
  138.7511  151.0023  121.2501 C   0  0  0  0  0  0  0  0  0  0  0  0
  132.4905  141.0602  124.6412 C   0  0  0  0  0  0  0  0  0  0  0  0
  132.4465  139.8023  125.2758 C   0  0  0  0  0  0  0  0  0  0  0  0
  132.1814  139.6723  126.6119 C   0  0  0  0  0  0  0  0  0  0  0  0
  132.0836  138.6346  127.4474 N   0  0  0  0  0  0  0  0  0  0  0  0
  1  2  1  0
  2  3  2  0
  3  4  1  0
  4  5  1  0
  5  6  2  0
  6  7  1  0
  6  8  1  0
  8  9  2  0
  9 10  1  0
 10 11  1  0
 11 12  1  0
 12 13  1  6
 13 14  1  0
 12 15  1  0
 15 16  2  0
 10 17  1  0
 17 18  2  0
 17 19  1  0
 19 20  2  0
 20 21  1  0
 21 22  2  0
 22 23  1  0
 23 24  1  0
 24 25  1  0
 25 26  2  0
 25 27  1  0
 27 28  1  0
 28 29  2  0
 29 30  1  0
 30 31  2  0
 31 32  1  0
 32 33  1  0
 33 34  2  0
 34 35  1  0
 35 36  2  0
 33 37  1  0
 37 38  2  0
 37 39  1  0
 39 40  1  0
 40 41  1  0
 41 42  1  1
 42 43  1  0
 41 44  1  0
 44 45  2  0
 45 46  1  0
 46 47  1  0
 46 48  2  0
 48 49  1  0
 49 50  1  0
 50 51  2  0
 51 52  1  0
 51 53  1  0
 53 54  2  0
 23 55  2  0
 55 56  1  0
 56 57  2  0
 57 58  1  0
 16  2  1  0
 58 19  1  0
 16  5  1  0
 57 21  1  0
 15  9  1  0
 36 28  1  0
 54 39  1  0
 35 31  1  0
 54 44  1  0
 50 45  1  0
M  END
$$$$
