
     RDKit          3D

 58 67  0  0  0  0  0  0  0  0999 V2000
  212.2581  123.1531  131.9294 C   0  0  0  0  0  0  0  0  0  0  0  0
  213.4991  123.1134  132.7618 C   0  0  0  0  0  0  0  0  0  0  0  0
  214.2287  121.9883  133.0844 C   0  0  0  0  0  0  0  0  0  0  0  0
  215.2511  122.4149  133.8457 N   0  0  0  0  0  0  0  0  0  0  0  0
  215.2092  123.7360  134.0212 C   0  0  0  0  0  0  0  0  0  0  0  0
  216.0516  124.5778  134.7199 C   0  0  0  0  0  0  0  0  0  0  0  0
  217.1475  124.0660  135.3882 O   0  0  0  0  0  0  0  0  0  0  0  0
  215.7831  125.9100  134.7366 C   0  0  0  0  0  0  0  0  0  0  0  0
  214.6698  126.4067  134.0545 C   0  0  0  0  0  0  0  0  0  0  0  0
  214.2045  127.7360  133.9285 N   0  0  0  0  0  0  0  0  0  0  0  0
  212.7714  127.6312  133.6355 C   0  0  0  0  0  0  0  0  0  0  0  0
  212.7503  126.3945  132.7522 C   0  0  1  0  0  0  0  0  0  0  0  0
  213.1359  126.8393  131.3626 C   0  0  0  0  0  0  0  0  0  0  0  0
  211.6606  127.2331  130.4471 Cl  0  0  0  0  0  0  0  0  0  0  0  0
  213.8326  125.5457  133.3572 C   0  0  0  0  0  0  0  0  0  0  0  0
  214.0996  124.1963  133.3371 C   0  0  0  0  0  0  0  0  0  0  0  0
  214.9298  128.9468  134.0544 C   0  0  0  0  0  0  0  0  0  0  0  0
  216.1263  128.8882  134.4263 O   0  0  0  0  0  0  0  0  0  0  0  0
  214.3399  130.2432  133.7693 C   0  0  0  0  0  0  0  0  0  0  0  0
  213.4255  130.8878  134.6066 C   0  0  0  0  0  0  0  0  0  0  0  0
  213.0597  132.1141  134.0397 C   0  0  0  0  0  0  0  0  0  0  0  0
  212.2220  133.1212  134.4230 C   0  0  0  0  0  0  0  0  0  0  0  0
  212.0329  134.2672  133.6562 C   0  0  0  0  0  0  0  0  0  0  0  0
  211.1131  135.2652  134.1120 N   0  0  0  0  0  0  0  0  0  0  0  0
  209.7386  135.1930  133.9515 C   0  0  0  0  0  0  0  0  0  0  0  0
  209.1347  134.1236  133.6291 O   0  0  0  0  0  0  0  0  0  0  0  0
  208.8585  136.3142  134.1368 N   0  0  0  0  0  0  0  0  0  0  0  0
  207.4626  136.0856  134.0038 C   0  0  0  0  0  0  0  0  0  0  0  0
  206.7964  135.2336  134.8801 C   0  0  0  0  0  0  0  0  0  0  0  0
  205.4318  135.1248  134.7542 C   0  0  0  0  0  0  0  0  0  0  0  0
  204.7343  135.8270  133.8024 C   0  0  0  0  0  0  0  0  0  0  0  0
  203.4327  135.9084  133.5103 N   0  0  0  0  0  0  0  0  0  0  0  0
  203.2118  136.7755  132.4808 C   0  0  0  0  0  0  0  0  0  0  0  0
  204.4286  137.2514  132.1146 C   0  0  0  0  0  0  0  0  0  0  0  0
  205.3905  136.6796  132.9193 C   0  0  0  0  0  0  0  0  0  0  0  0
  206.7552  136.7859  133.0466 C   0  0  0  0  0  0  0  0  0  0  0  0
  201.8660  137.0689  132.0159 C   0  0  0  0  0  0  0  0  0  0  0  0
  201.4360  136.3306  131.0676 O   0  0  0  0  0  0  0  0  0  0  0  0
  201.0360  138.0517  132.4941 N   0  0  0  0  0  0  0  0  0  0  0  0
  200.3828  138.2518  133.8341 C   0  0  0  0  0  0  0  0  0  0  0  0
  198.9582  138.3442  133.1365 C   0  0  1  0  0  0  0  0  0  0  0  0
  197.9285  137.8727  133.9550 C   0  0  0  0  0  0  0  0  0  0  0  0
  197.0422  139.1253  134.8260 Cl  0  0  0  0  0  0  0  0  0  0  0  0
  199.2361  139.5005  132.3431 C   0  0  0  0  0  0  0  0  0  0  0  0
  198.6200  140.6705  131.9317 C   0  0  0  0  0  0  0  0  0  0  0  0
  197.4669  141.2954  132.3215 C   0  0  0  0  0  0  0  0  0  0  0  0
  196.5006  140.9180  133.3644 C   0  0  0  0  0  0  0  0  0  0  0  0
  197.4091  142.4838  131.5622 C   0  0  0  0  0  0  0  0  0  0  0  0
  198.4763  142.5384  130.7814 N   0  0  0  0  0  0  0  0  0  0  0  0
  199.2666  141.4372  130.9705 C   0  0  0  0  0  0  0  0  0  0  0  0
  200.4817  141.1240  130.3985 C   0  0  0  0  0  0  0  0  0  0  0  0
  201.0566  141.9279  129.4538 O   0  0  0  0  0  0  0  0  0  0  0  0
  201.0903  139.9679  130.8202 C   0  0  0  0  0  0  0  0  0  0  0  0
  200.4981  139.1770  131.7630 C   0  0  0  0  0  0  0  0  0  0  0  0
  212.7345  134.3351  132.4886 C   0  0  0  0  0  0  0  0  0  0  0  0
  213.5990  133.2938  132.0944 C   0  0  0  0  0  0  0  0  0  0  0  0
  213.7774  132.1712  132.8561 C   0  0  0  0  0  0  0  0  0  0  0  0
  214.5144  131.0643  132.7287 N   0  0  0  0  0  0  0  0  0  0  0  0
  1  2  1  0
  2  3  2  0
  3  4  1  0
  4  5  1  0
  5  6  2  0
  6  7  1  0
  6  8  1  0
  8  9  2  0
  9 10  1  0
 10 11  1  0
 11 12  1  0
 12 13  1  6
 13 14  1  0
 12 15  1  0
 15 16  2  0
 10 17  1  0
 17 18  2  0
 17 19  1  0
 19 20  2  0
 20 21  1  0
 21 22  2  0
 22 23  1  0
 23 24  1  0
 24 25  1  0
 25 26  2  0
 25 27  1  0
 27 28  1  0
 28 29  2  0
 29 30  1  0
 30 31  2  0
 31 32  1  0
 32 33  1  0
 33 34  2  0
 34 35  1  0
 35 36  2  0
 33 37  1  0
 37 38  2  0
 37 39  1  0
 39 40  1  0
 40 41  1  0
 41 42  1  1
 42 43  1  0
 41 44  1  0
 44 45  2  0
 45 46  1  0
 46 47  1  0
 46 48  2  0
 48 49  1  0
 49 50  1  0
 50 51  2  0
 51 52  1  0
 51 53  1  0
 53 54  2  0
 23 55  2  0
 55 56  1  0
 56 57  2  0
 57 58  1  0
 16  2  1  0
 58 19  1  0
 16  5  1  0
 57 21  1  0
 15  9  1  0
 36 28  1  0
 54 39  1  0
 35 31  1  0
 54 44  1  0
 50 45  1  0
M  END
$$$$
