
     RDKit          3D

 58 67  0  0  0  0  0  0  0  0999 V2000
  111.7463  170.1462  138.1811 C   0  0  0  0  0  0  0  0  0  0  0  0
  110.7630  169.0238  138.2690 C   0  0  0  0  0  0  0  0  0  0  0  0
  109.6324  168.8679  137.4945 C   0  0  0  0  0  0  0  0  0  0  0  0
  109.0481  167.7329  137.9154 N   0  0  0  0  0  0  0  0  0  0  0  0
  109.7403  167.1669  138.9045 C   0  0  0  0  0  0  0  0  0  0  0  0
  109.5068  166.0075  139.6169 C   0  0  0  0  0  0  0  0  0  0  0  0
  108.3954  165.2341  139.3407 O   0  0  0  0  0  0  0  0  0  0  0  0
  110.3859  165.6449  140.5880 C   0  0  0  0  0  0  0  0  0  0  0  0
  111.5030  166.4411  140.8515 C   0  0  0  0  0  0  0  0  0  0  0  0
  112.5403  166.2612  141.7955 N   0  0  0  0  0  0  0  0  0  0  0  0
  113.0892  167.5980  142.0452 C   0  0  0  0  0  0  0  0  0  0  0  0
  112.9898  168.2110  140.6579 C   0  0  1  0  0  0  0  0  0  0  0  0
  114.1840  167.7235  139.8745 C   0  0  0  0  0  0  0  0  0  0  0  0
  114.3284  165.9599  140.0705 Cl  0  0  0  0  0  0  0  0  0  0  0  0
  111.7223  167.6045  140.1257 C   0  0  0  0  0  0  0  0  0  0  0  0
  110.8356  167.9763  139.1417 C   0  0  0  0  0  0  0  0  0  0  0  0
  112.9893  165.0630  142.4044 C   0  0  0  0  0  0  0  0  0  0  0  0
  112.1546  164.1491  142.6072 O   0  0  0  0  0  0  0  0  0  0  0  0
  114.3724  164.8586  142.7984 C   0  0  0  0  0  0  0  0  0  0  0  0
  114.9391  165.3802  143.9643 C   0  0  0  0  0  0  0  0  0  0  0  0
  116.2822  164.9946  144.0419 C   0  0  0  0  0  0  0  0  0  0  0  0
  117.2798  165.2172  144.9465 C   0  0  0  0  0  0  0  0  0  0  0  0
  118.5630  164.7038  144.7837 C   0  0  0  0  0  0  0  0  0  0  0  0
  119.5632  165.0079  145.7620 N   0  0  0  0  0  0  0  0  0  0  0  0
  120.4506  166.0681  145.6690 C   0  0  0  0  0  0  0  0  0  0  0  0
  120.7481  166.6272  144.5685 O   0  0  0  0  0  0  0  0  0  0  0  0
  121.1193  166.6445  146.8034 N   0  0  0  0  0  0  0  0  0  0  0  0
  122.4727  167.0436  146.6382 C   0  0  0  0  0  0  0  0  0  0  0  0
  122.7849  168.2797  146.0793 C   0  0  0  0  0  0  0  0  0  0  0  0
  124.1096  168.6438  146.0296 C   0  0  0  0  0  0  0  0  0  0  0  0
  125.1033  167.8280  146.5119 C   0  0  0  0  0  0  0  0  0  0  0  0
  126.4291  167.9713  146.5998 N   0  0  0  0  0  0  0  0  0  0  0  0
  127.0042  166.8850  147.1912 C   0  0  0  0  0  0  0  0  0  0  0  0
  125.9930  166.0277  147.4806 C   0  0  0  0  0  0  0  0  0  0  0  0
  124.8028  166.5890  147.0702 C   0  0  0  0  0  0  0  0  0  0  0  0
  123.4776  166.2267  147.1179 C   0  0  0  0  0  0  0  0  0  0  0  0
  128.4349  166.8311  147.4431 C   0  0  0  0  0  0  0  0  0  0  0  0
  129.1795  166.8572  146.4066 O   0  0  0  0  0  0  0  0  0  0  0  0
  129.0427  166.7523  148.6709 N   0  0  0  0  0  0  0  0  0  0  0  0
  128.8105  167.4968  149.9571 C   0  0  0  0  0  0  0  0  0  0  0  0
  130.3389  167.9295  149.9936 C   0  0  1  0  0  0  0  0  0  0  0  0
  130.5316  169.1662  150.6149 C   0  0  0  0  0  0  0  0  0  0  0  0
  129.9211  169.2680  152.2673 Cl  0  0  0  0  0  0  0  0  0  0  0  0
  130.8838  166.6100  150.0679 C   0  0  0  0  0  0  0  0  0  0  0  0
  131.8960  165.9215  150.7155 C   0  0  0  0  0  0  0  0  0  0  0  0
  132.7133  166.2477  151.7632 C   0  0  0  0  0  0  0  0  0  0  0  0
  132.7496  167.4699  152.5809 C   0  0  0  0  0  0  0  0  0  0  0  0
  133.5046  165.1016  151.9926 C   0  0  0  0  0  0  0  0  0  0  0  0
  133.1552  164.1664  151.1238 N   0  0  0  0  0  0  0  0  0  0  0  0
  132.1567  164.6201  150.3052 C   0  0  0  0  0  0  0  0  0  0  0  0
  131.4777  163.9581  149.3041 C   0  0  0  0  0  0  0  0  0  0  0  0
  131.7933  162.6751  148.9526 O   0  0  0  0  0  0  0  0  0  0  0  0
  130.4687  164.6444  148.6750 C   0  0  0  0  0  0  0  0  0  0  0  0
  130.1708  165.9265  149.0393 C   0  0  0  0  0  0  0  0  0  0  0  0
  118.7775  163.9581  143.6620 C   0  0  0  0  0  0  0  0  0  0  0  0
  117.7459  163.7295  142.7289 C   0  0  0  0  0  0  0  0  0  0  0  0
  116.4875  164.2393  142.8988 C   0  0  0  0  0  0  0  0  0  0  0  0
  115.3535  164.1794  142.1953 N   0  0  0  0  0  0  0  0  0  0  0  0
  1  2  1  0
  2  3  2  0
  3  4  1  0
  4  5  1  0
  5  6  2  0
  6  7  1  0
  6  8  1  0
  8  9  2  0
  9 10  1  0
 10 11  1  0
 11 12  1  0
 12 13  1  6
 13 14  1  0
 12 15  1  0
 15 16  2  0
 10 17  1  0
 17 18  2  0
 17 19  1  0
 19 20  2  0
 20 21  1  0
 21 22  2  0
 22 23  1  0
 23 24  1  0
 24 25  1  0
 25 26  2  0
 25 27  1  0
 27 28  1  0
 28 29  2  0
 29 30  1  0
 30 31  2  0
 31 32  1  0
 32 33  1  0
 33 34  2  0
 34 35  1  0
 35 36  2  0
 33 37  1  0
 37 38  2  0
 37 39  1  0
 39 40  1  0
 40 41  1  0
 41 42  1  1
 42 43  1  0
 41 44  1  0
 44 45  2  0
 45 46  1  0
 46 47  1  0
 46 48  2  0
 48 49  1  0
 49 50  1  0
 50 51  2  0
 51 52  1  0
 51 53  1  0
 53 54  2  0
 23 55  2  0
 55 56  1  0
 56 57  2  0
 57 58  1  0
 16  2  1  0
 58 19  1  0
 16  5  1  0
 57 21  1  0
 15  9  1  0
 36 28  1  0
 54 39  1  0
 35 31  1  0
 54 44  1  0
 50 45  1  0
M  END
$$$$
