
     RDKit          3D

 38 41  0  0  0  0  0  0  0  0999 V2000
  121.1163  164.5769  143.1521 C   0  0  0  0  0  0  0  0  0  0  0  0
  120.5507  165.9510  142.7903 C   0  0  1  0  0  0  0  0  0  0  0  0
  121.4158  167.0197  143.3872 C   0  0  0  0  0  0  0  0  0  0  0  0
  120.5847  167.8262  144.3632 C   0  0  0  0  0  0  0  0  0  0  0  0
  120.2756  166.8984  145.5470 C   0  0  0  0  0  0  0  0  0  0  0  0
  119.2213  167.4968  146.4018 C   0  0  1  0  0  0  0  0  0  0  0  0
  119.6768  168.5188  147.4461 C   0  0  0  0  0  0  0  0  0  0  0  0
  118.1136  168.0569  145.5728 O   0  0  0  0  0  0  0  0  0  0  0  0
  117.9158  166.9972  146.4598 C   0  0  1  0  0  0  0  0  0  0  0  0
  117.5487  165.6713  145.8927 C   0  0  0  0  0  0  0  0  0  0  0  0
  116.1626  165.6100  145.2832 C   0  0  2  0  0  0  0  0  0  0  0  0
  116.1211  166.4832  144.2024 O   0  0  0  0  0  0  0  0  0  0  0  0
  115.4474  166.4053  143.0252 C   0  0  0  0  0  0  0  0  0  0  0  0
  114.7227  167.4250  142.7144 O   0  0  0  0  0  0  0  0  0  0  0  0
  115.4257  165.3194  142.0507 C   0  0  0  0  0  0  0  0  0  0  0  0
  116.6056  165.1219  141.1852 C   0  0  2  0  0  0  0  0  0  0  0  0
  117.6124  164.5195  141.9412 O   0  0  0  0  0  0  0  0  0  0  0  0
  117.1116  166.2693  140.3803 C   0  0  0  0  0  0  0  0  0  0  0  0
  116.0131  167.2437  139.9769 C   0  0  0  0  0  0  0  0  0  0  0  0
  117.5780  165.6631  139.0453 C   0  0  0  0  0  0  0  0  0  0  0  0
  118.1638  167.0792  141.0214 C   0  0  0  0  0  0  0  0  0  0  0  0
  117.6730  167.8128  141.9089 O   0  0  0  0  0  0  0  0  0  0  0  0
  119.5802  167.1538  140.7996 C   0  0  2  0  0  0  0  0  0  0  0  0
  120.0619  167.4362  139.3913 C   0  0  0  0  0  0  0  0  0  0  0  0
  120.4561  168.8498  139.2083 C   0  0  0  0  0  0  0  0  0  0  0  0
  119.6033  169.8516  139.0480 C   0  0  0  0  0  0  0  0  0  0  0  0
  120.4129  165.9949  141.3101 C   0  0  1  0  0  0  0  0  0  0  0  0
  121.7126  166.2143  140.7909 O   0  0  0  0  0  0  0  0  0  0  0  0
  115.0901  165.9358  146.2951 C   0  0  0  0  0  0  0  0  0  0  0  0
  114.1595  164.9563  146.5822 C   0  0  0  0  0  0  0  0  0  0  0  0
  113.1808  165.2610  147.5030 C   0  0  0  0  0  0  0  0  0  0  0  0
  113.1539  166.5254  148.1104 C   0  0  0  0  0  0  0  0  0  0  0  0
  112.1634  167.3199  149.2672 S   0  0  0  0  0  0  0  0  0  0  0  0
  112.9775  168.8204  149.3140 C   0  0  0  0  0  0  0  0  0  0  0  0
  112.7150  170.0763  150.1046 C   0  0  0  0  0  0  0  0  0  0  0  0
  113.9567  168.6363  148.4490 N   0  0  0  0  0  0  0  0  0  0  0  0
  114.0725  167.4997  147.8303 C   0  0  0  0  0  0  0  0  0  0  0  0
  115.0541  167.1525  146.8875 C   0  0  0  0  0  0  0  0  0  0  0  0
  2  1  1  6
  2  3  1  0
  3  4  1  0
  4  5  1  0
  5  6  1  0
  6  7  1  1
  6  8  1  0
  8  9  1  0
  9 10  1  6
 10 11  1  0
 11 12  1  0
 12 13  1  0
 13 14  2  0
 13 15  1  0
 15 16  1  0
 16 17  1  1
 16 18  1  0
 18 19  1  0
 18 20  1  0
 18 21  1  0
 21 22  2  0
 21 23  1  0
 23 24  1  6
 24 25  1  0
 25 26  2  0
 23 27  1  0
 27 28  1  6
 11 29  1  1
 29 30  2  0
 30 31  1  0
 31 32  2  0
 32 33  1  0
 33 34  1  0
 34 35  1  0
 34 36  2  0
 36 37  1  0
 37 38  2  0
 27  2  1  0
 38 29  1  0
  9  6  1  0
 37 32  1  0
M  END
$$$$
