
     RDKit          3D

 38 41  0  0  0  0  0  0  0  0999 V2000
  131.7816  166.5978  153.1738 C   0  0  0  0  0  0  0  0  0  0  0  0
  132.7615  165.4620  152.8758 C   0  0  1  0  0  0  0  0  0  0  0  0
  132.8264  165.2343  151.3957 C   0  0  0  0  0  0  0  0  0  0  0  0
  132.3544  163.8256  151.1016 C   0  0  0  0  0  0  0  0  0  0  0  0
  130.8514  163.7926  151.4137 C   0  0  0  0  0  0  0  0  0  0  0  0
  130.3685  162.3905  151.4477 C   0  0  1  0  0  0  0  0  0  0  0  0
  130.0055  161.7527  150.1046 C   0  0  0  0  0  0  0  0  0  0  0  0
  131.3151  161.5162  152.2011 O   0  0  0  0  0  0  0  0  0  0  0  0
  130.0063  161.7401  152.6322 C   0  0  1  0  0  0  0  0  0  0  0  0
  129.8086  162.4747  153.9111 C   0  0  0  0  0  0  0  0  0  0  0  0
  130.2393  161.7119  155.1476 C   0  0  2  0  0  0  0  0  0  0  0  0
  131.6100  161.4929  155.0711 O   0  0  0  0  0  0  0  0  0  0  0  0
  132.5543  161.4357  156.0462 C   0  0  0  0  0  0  0  0  0  0  0  0
  133.3040  160.3870  156.0531 O   0  0  0  0  0  0  0  0  0  0  0  0
  132.8448  162.4023  157.0999 C   0  0  0  0  0  0  0  0  0  0  0  0
  133.5451  163.6516  156.7406 C   0  0  2  0  0  0  0  0  0  0  0  0
  132.6354  164.5029  156.1113 O   0  0  0  0  0  0  0  0  0  0  0  0
  134.8415  163.5690  156.0106 C   0  0  0  0  0  0  0  0  0  0  0  0
  135.6309  162.3092  156.3402 C   0  0  0  0  0  0  0  0  0  0  0  0
  135.7073  164.7077  156.5769 C   0  0  0  0  0  0  0  0  0  0  0  0
  134.7463  163.6208  154.5401 C   0  0  0  0  0  0  0  0  0  0  0  0
  134.3294  162.5303  154.0888 O   0  0  0  0  0  0  0  0  0  0  0  0
  135.0401  164.6653  153.6000 C   0  0  2  0  0  0  0  0  0  0  0  0
  136.4186  165.2919  153.6466 C   0  0  0  0  0  0  0  0  0  0  0  0
  137.1781  164.8834  154.8481 C   0  0  0  0  0  0  0  0  0  0  0  0
  136.6755  164.8384  156.0737 C   0  0  0  0  0  0  0  0  0  0  0  0
  134.0531  165.8130  153.5243 C   0  0  1  0  0  0  0  0  0  0  0  0
  134.6710  166.7803  152.6940 O   0  0  0  0  0  0  0  0  0  0  0  0
  129.4826  160.4136  155.2976 C   0  0  0  0  0  0  0  0  0  0  0  0
  130.2163  159.2442  155.3414 C   0  0  0  0  0  0  0  0  0  0  0  0
  129.5200  158.0626  155.4739 C   0  0  0  0  0  0  0  0  0  0  0  0
  128.1197  158.0757  155.5589 C   0  0  0  0  0  0  0  0  0  0  0  0
  126.8806  156.8976  155.7242 S   0  0  0  0  0  0  0  0  0  0  0  0
  125.5310  157.9442  155.7273 C   0  0  0  0  0  0  0  0  0  0  0  0
  124.0533  157.6701  155.8385 C   0  0  0  0  0  0  0  0  0  0  0  0
  126.0948  159.1306  155.6028 N   0  0  0  0  0  0  0  0  0  0  0  0
  127.3873  159.2304  155.5161 C   0  0  0  0  0  0  0  0  0  0  0  0
  128.1313  160.4140  155.3804 C   0  0  0  0  0  0  0  0  0  0  0  0
  2  1  1  6
  2  3  1  0
  3  4  1  0
  4  5  1  0
  5  6  1  0
  6  7  1  6
  6  8  1  0
  8  9  1  0
  9 10  1  1
 10 11  1  0
 11 12  1  0
 12 13  1  0
 13 14  2  0
 13 15  1  0
 15 16  1  0
 16 17  1  6
 16 18  1  0
 18 19  1  0
 18 20  1  0
 18 21  1  0
 21 22  2  0
 21 23  1  0
 23 24  1  1
 24 25  1  0
 25 26  2  0
 23 27  1  0
 27 28  1  6
 11 29  1  6
 29 30  2  0
 30 31  1  0
 31 32  2  0
 32 33  1  0
 33 34  1  0
 34 35  1  0
 34 36  2  0
 36 37  1  0
 37 38  2  0
 27  2  1  0
 38 29  1  0
  9  6  1  0
 37 32  1  0
M  END
$$$$
