
     RDKit          3D

 38 41  0  0  0  0  0  0  0  0999 V2000
  113.8016  164.6109  146.2638 C   0  0  0  0  0  0  0  0  0  0  0  0
  113.8061  166.1375  146.1715 C   0  0  1  0  0  0  0  0  0  0  0  0
  112.4097  166.6272  145.9327 C   0  0  0  0  0  0  0  0  0  0  0  0
  112.3710  167.3494  144.6021 C   0  0  0  0  0  0  0  0  0  0  0  0
  112.5775  166.2821  143.5177 C   0  0  0  0  0  0  0  0  0  0  0  0
  112.8573  166.9290  142.2125 C   0  0  1  0  0  0  0  0  0  0  0  0
  111.6469  167.3868  141.3954 C   0  0  0  0  0  0  0  0  0  0  0  0
  113.8347  168.0464  142.3673 O   0  0  0  0  0  0  0  0  0  0  0  0
  114.1197  166.9089  141.6098 C   0  0  1  0  0  0  0  0  0  0  0  0
  115.2088  166.0111  142.0810 C   0  0  0  0  0  0  0  0  0  0  0  0
  116.5999  166.6036  141.9806 C   0  0  2  0  0  0  0  0  0  0  0  0
  116.6649  167.7116  142.8176 O   0  0  0  0  0  0  0  0  0  0  0  0
  117.6953  168.2112  143.5486 C   0  0  0  0  0  0  0  0  0  0  0  0
  117.9642  169.4600  143.3758 O   0  0  0  0  0  0  0  0  0  0  0  0
  118.5521  167.5285  144.5125 C   0  0  0  0  0  0  0  0  0  0  0  0
  118.0000  167.2007  145.8422 C   0  0  2  0  0  0  0  0  0  0  0  0
  117.1511  166.1008  145.7093 O   0  0  0  0  0  0  0  0  0  0  0  0
  117.3939  168.2882  146.6610 C   0  0  0  0  0  0  0  0  0  0  0  0
  118.0232  169.6503  146.4011 C   0  0  0  0  0  0  0  0  0  0  0  0
  117.7801  167.9730  148.1165 C   0  0  0  0  0  0  0  0  0  0  0  0
  115.9398  168.4699  146.4981 C   0  0  0  0  0  0  0  0  0  0  0  0
  115.6877  169.0368  145.4109 O   0  0  0  0  0  0  0  0  0  0  0  0
  114.8327  168.1192  147.3421 C   0  0  2  0  0  0  0  0  0  0  0  0
  114.8494  168.6153  148.7734 C   0  0  0  0  0  0  0  0  0  0  0  0
  115.7652  169.7619  148.9571 C   0  0  0  0  0  0  0  0  0  0  0  0
  115.5089  170.9985  148.5548 C   0  0  0  0  0  0  0  0  0  0  0  0
  114.4601  166.6515  147.4044 C   0  0  1  0  0  0  0  0  0  0  0  0
  113.4984  166.5560  148.4402 O   0  0  0  0  0  0  0  0  0  0  0  0
  116.9532  166.9674  140.5582 C   0  0  0  0  0  0  0  0  0  0  0  0
  117.3500  165.9482  139.7146 C   0  0  0  0  0  0  0  0  0  0  0  0
  117.6753  166.2869  138.4192 C   0  0  0  0  0  0  0  0  0  0  0  0
  117.5977  167.6235  137.9996 C   0  0  0  0  0  0  0  0  0  0  0  0
  117.8937  168.4798  136.5404 S   0  0  0  0  0  0  0  0  0  0  0  0
  117.5024  170.0516  137.0820 C   0  0  0  0  0  0  0  0  0  0  0  0
  117.5090  171.3830  136.3761 C   0  0  0  0  0  0  0  0  0  0  0  0
  117.1684  169.8403  138.3408 N   0  0  0  0  0  0  0  0  0  0  0  0
  117.2056  168.6373  138.8302 C   0  0  0  0  0  0  0  0  0  0  0  0
  116.8822  168.2537  140.1422 C   0  0  0  0  0  0  0  0  0  0  0  0
  2  1  1  1
  2  3  1  0
  3  4  1  0
  4  5  1  0
  5  6  1  0
  6  7  1  6
  6  8  1  0
  8  9  1  0
  9 10  1  1
 10 11  1  0
 11 12  1  0
 12 13  1  0
 13 14  2  0
 13 15  1  0
 15 16  1  0
 16 17  1  6
 16 18  1  0
 18 19  1  0
 18 20  1  0
 18 21  1  0
 21 22  2  0
 21 23  1  0
 23 24  1  1
 24 25  1  0
 25 26  2  0
 23 27  1  0
 27 28  1  1
 11 29  1  6
 29 30  2  0
 30 31  1  0
 31 32  2  0
 32 33  1  0
 33 34  1  0
 34 35  1  0
 34 36  2  0
 36 37  1  0
 37 38  2  0
 27  2  1  0
 38 29  1  0
  9  6  1  0
 37 32  1  0
M  END
$$$$
