
     RDKit          3D

 38 41  0  0  0  0  0  0  0  0999 V2000
  186.4037  162.8129  133.4809 C   0  0  0  0  0  0  0  0  0  0  0  0
  186.7593  161.6016  134.3444 C   0  0  1  0  0  0  0  0  0  0  0  0
  186.7169  160.3606  133.5049 C   0  0  0  0  0  0  0  0  0  0  0  0
  185.6556  159.4351  134.0625 C   0  0  0  0  0  0  0  0  0  0  0  0
  184.3019  160.1080  133.7936 C   0  0  0  0  0  0  0  0  0  0  0  0
  183.2331  159.4298  134.5671 C   0  0  1  0  0  0  0  0  0  0  0  0
  182.6227  158.1720  133.9444 C   0  0  0  0  0  0  0  0  0  0  0  0
  183.6755  159.1568  135.9662 O   0  0  0  0  0  0  0  0  0  0  0  0
  182.6115  160.0129  135.6765 C   0  0  1  0  0  0  0  0  0  0  0  0
  182.7670  161.4559  136.0047 C   0  0  0  0  0  0  0  0  0  0  0  0
  182.7999  161.7634  137.4882 C   0  0  2  0  0  0  0  0  0  0  0  0
  183.9205  161.1507  138.0372 O   0  0  0  0  0  0  0  0  0  0  0  0
  184.7326  161.5372  139.0555 C   0  0  0  0  0  0  0  0  0  0  0  0
  184.9221  160.6731  139.9931 O   0  0  0  0  0  0  0  0  0  0  0  0
  185.4290  162.8058  139.2426 C   0  0  0  0  0  0  0  0  0  0  0  0
  186.6225  163.0858  138.4195 C   0  0  2  0  0  0  0  0  0  0  0  0
  186.2021  163.4241  137.1322 O   0  0  0  0  0  0  0  0  0  0  0  0
  187.7407  162.1009  138.4094 C   0  0  0  0  0  0  0  0  0  0  0  0
  187.8686  161.3322  139.7177 C   0  0  0  0  0  0  0  0  0  0  0  0
  189.0288  162.9396  138.3448 C   0  0  0  0  0  0  0  0  0  0  0  0
  187.6831  161.0863  137.3410 C   0  0  0  0  0  0  0  0  0  0  0  0
  186.8163  160.2222  137.6030 O   0  0  0  0  0  0  0  0  0  0  0  0
  188.4228  160.9427  136.1191 C   0  0  2  0  0  0  0  0  0  0  0  0
  189.9353  160.9316  136.2048 C   0  0  0  0  0  0  0  0  0  0  0  0
  190.4306  161.5932  137.4312 C   0  0  0  0  0  0  0  0  0  0  0  0
  190.5367  161.0011  138.6123 C   0  0  0  0  0  0  0  0  0  0  0  0
  188.0673  161.8901  134.9907 C   0  0  1  0  0  0  0  0  0  0  0  0
  189.0600  161.6797  134.0022 O   0  0  0  0  0  0  0  0  0  0  0  0
  181.5344  161.3180  138.1815 C   0  0  0  0  0  0  0  0  0  0  0  0
  181.6067  160.2058  138.9973 C   0  0  0  0  0  0  0  0  0  0  0  0
  180.4479  159.8015  139.6236 C   0  0  0  0  0  0  0  0  0  0  0  0
  179.2541  160.5107  139.4227 C   0  0  0  0  0  0  0  0  0  0  0  0
  177.6318  160.3803  139.9718 S   0  0  0  0  0  0  0  0  0  0  0  0
  176.9732  161.7223  139.1460 C   0  0  0  0  0  0  0  0  0  0  0  0
  175.5765  162.2871  139.1097 C   0  0  0  0  0  0  0  0  0  0  0  0
  178.0209  162.1960  138.4987 N   0  0  0  0  0  0  0  0  0  0  0  0
  179.1759  161.6128  138.6160 C   0  0  0  0  0  0  0  0  0  0  0  0
  180.3767  161.9944  137.9950 C   0  0  0  0  0  0  0  0  0  0  0  0
  2  1  1  6
  2  3  1  0
  3  4  1  0
  4  5  1  0
  5  6  1  0
  6  7  1  6
  6  8  1  0
  8  9  1  0
  9 10  1  6
 10 11  1  0
 11 12  1  0
 12 13  1  0
 13 14  2  0
 13 15  1  0
 15 16  1  0
 16 17  1  6
 16 18  1  0
 18 19  1  0
 18 20  1  0
 18 21  1  0
 21 22  2  0
 21 23  1  0
 23 24  1  1
 24 25  1  0
 25 26  2  0
 23 27  1  0
 27 28  1  6
 11 29  1  1
 29 30  2  0
 30 31  1  0
 31 32  2  0
 32 33  1  0
 33 34  1  0
 34 35  1  0
 34 36  2  0
 36 37  1  0
 37 38  2  0
 27  2  1  0
 38 29  1  0
  9  6  1  0
 37 32  1  0
M  END
$$$$
