
     RDKit          3D

 38 41  0  0  0  0  0  0  0  0999 V2000
  187.9920  163.4542  129.7508 C   0  0  0  0  0  0  0  0  0  0  0  0
  189.5045  163.3792  129.5365 C   0  0  1  0  0  0  0  0  0  0  0  0
  189.9373  164.4977  128.6375 C   0  0  0  0  0  0  0  0  0  0  0  0
  190.5399  163.9037  127.3815 C   0  0  0  0  0  0  0  0  0  0  0  0
  189.3877  163.2392  126.6142 C   0  0  0  0  0  0  0  0  0  0  0  0
  189.9254  162.3758  125.5345 C   0  0  1  0  0  0  0  0  0  0  0  0
  190.2807  163.0628  124.2138 C   0  0  0  0  0  0  0  0  0  0  0  0
  191.0757  161.5601  126.0238 O   0  0  0  0  0  0  0  0  0  0  0  0
  189.8840  160.9784  125.5874 C   0  0  1  0  0  0  0  0  0  0  0  0
  189.0574  160.2473  126.5857 C   0  0  0  0  0  0  0  0  0  0  0  0
  189.6729  158.9566  127.0874 C   0  0  2  0  0  0  0  0  0  0  0  0
  190.8507  159.2653  127.7581 O   0  0  0  0  0  0  0  0  0  0  0  0
  191.4370  158.6803  128.8351 C   0  0  0  0  0  0  0  0  0  0  0  0
  192.6723  158.3389  128.6964 O   0  0  0  0  0  0  0  0  0  0  0  0
  190.8618  158.3788  130.1418 C   0  0  0  0  0  0  0  0  0  0  0  0
  190.6374  159.4890  131.0892 C   0  0  2  0  0  0  0  0  0  0  0  0
  189.5096  160.2006  130.6770 O   0  0  0  0  0  0  0  0  0  0  0  0
  191.7767  160.3846  131.4357 C   0  0  0  0  0  0  0  0  0  0  0  0
  193.1261  159.6813  131.3767 C   0  0  0  0  0  0  0  0  0  0  0  0
  191.5988  160.7208  132.9265 C   0  0  0  0  0  0  0  0  0  0  0  0
  191.9080  161.5952  130.6042 C   0  0  0  0  0  0  0  0  0  0  0  0
  192.3719  161.3057  129.4782 O   0  0  0  0  0  0  0  0  0  0  0  0
  191.6050  162.9733  130.8686 C   0  0  2  0  0  0  0  0  0  0  0  0
  192.2238  163.6109  132.0957 C   0  0  0  0  0  0  0  0  0  0  0  0
  191.9534  162.8351  133.3254 C   0  0  0  0  0  0  0  0  0  0  0  0
  190.8752  162.0891  133.5197 C   0  0  0  0  0  0  0  0  0  0  0  0
  190.1395  163.3597  130.8812 C   0  0  1  0  0  0  0  0  0  0  0  0
  190.1109  164.6928  131.3595 O   0  0  0  0  0  0  0  0  0  0  0  0
  189.9202  157.9791  125.9631 C   0  0  0  0  0  0  0  0  0  0  0  0
  190.0804  158.4916  124.6905 C   0  0  0  0  0  0  0  0  0  0  0  0
  190.3014  157.5946  123.6682 C   0  0  0  0  0  0  0  0  0  0  0  0
  190.3567  156.2188  123.9376 C   0  0  0  0  0  0  0  0  0  0  0  0
  190.5991  154.7883  123.0182 S   0  0  0  0  0  0  0  0  0  0  0  0
  190.4840  153.6477  124.2841 C   0  0  0  0  0  0  0  0  0  0  0  0
  190.5890  152.1444  124.2882 C   0  0  0  0  0  0  0  0  0  0  0  0
  190.2679  154.4152  125.3354 N   0  0  0  0  0  0  0  0  0  0  0  0
  190.1988  155.7050  125.1956 C   0  0  0  0  0  0  0  0  0  0  0  0
  189.9755  156.6494  126.2111 C   0  0  0  0  0  0  0  0  0  0  0  0
  2  1  1  1
  2  3  1  0
  3  4  1  0
  4  5  1  0
  5  6  1  0
  6  7  1  6
  6  8  1  0
  8  9  1  0
  9 10  1  1
 10 11  1  0
 11 12  1  0
 12 13  1  0
 13 14  2  0
 13 15  1  0
 15 16  1  0
 16 17  1  6
 16 18  1  0
 18 19  1  0
 18 20  1  0
 18 21  1  0
 21 22  2  0
 21 23  1  0
 23 24  1  1
 24 25  1  0
 25 26  2  0
 23 27  1  0
 27 28  1  6
 11 29  1  6
 29 30  2  0
 30 31  1  0
 31 32  2  0
 32 33  1  0
 33 34  1  0
 34 35  1  0
 34 36  2  0
 36 37  1  0
 37 38  2  0
 27  2  1  0
 38 29  1  0
  9  6  1  0
 37 32  1  0
M  END
$$$$
