
     RDKit          3D

 38 41  0  0  0  0  0  0  0  0999 V2000
  130.4346  144.3835  132.5130 C   0  0  0  0  0  0  0  0  0  0  0  0
  130.3125  143.8249  133.9315 C   0  0  1  0  0  0  0  0  0  0  0  0
  131.6095  143.1881  134.3304 C   0  0  0  0  0  0  0  0  0  0  0  0
  131.3654  141.7168  134.5937 C   0  0  0  0  0  0  0  0  0  0  0  0
  131.0427  141.0761  133.2361 C   0  0  0  0  0  0  0  0  0  0  0  0
  130.4952  139.7116  133.4337 C   0  0  1  0  0  0  0  0  0  0  0  0
  131.5099  138.5807  133.6177 C   0  0  0  0  0  0  0  0  0  0  0  0
  129.4883  139.6930  134.5354 O   0  0  0  0  0  0  0  0  0  0  0  0
  129.1507  139.3934  133.2144 C   0  0  1  0  0  0  0  0  0  0  0  0
  128.2235  140.3156  132.5044 C   0  0  0  0  0  0  0  0  0  0  0  0
  126.8002  140.2998  133.0243 C   0  0  2  0  0  0  0  0  0  0  0  0
  126.8102  140.7483  134.3400 O   0  0  0  0  0  0  0  0  0  0  0  0
  125.8935  141.4683  135.0380 C   0  0  0  0  0  0  0  0  0  0  0  0
  125.5161  140.9705  136.1656 O   0  0  0  0  0  0  0  0  0  0  0  0
  125.2669  142.7393  134.6899 C   0  0  0  0  0  0  0  0  0  0  0  0
  126.0649  143.9764  134.8047 C   0  0  2  0  0  0  0  0  0  0  0  0
  126.9483  144.0342  133.7257 O   0  0  0  0  0  0  0  0  0  0  0  0
  126.7321  144.2883  136.1001 C   0  0  0  0  0  0  0  0  0  0  0  0
  125.9778  143.7420  137.3049 C   0  0  0  0  0  0  0  0  0  0  0  0
  126.6298  145.8151  136.2598 C   0  0  0  0  0  0  0  0  0  0  0  0
  128.1195  143.8069  136.2314 C   0  0  0  0  0  0  0  0  0  0  0  0
  128.1382  142.5706  136.4262 O   0  0  0  0  0  0  0  0  0  0  0  0
  129.3787  144.4941  136.1745 C   0  0  2  0  0  0  0  0  0  0  0  0
  129.5812  145.6774  137.0987 C   0  0  0  0  0  0  0  0  0  0  0  0
  128.8213  146.8672  136.6582 C   0  0  0  0  0  0  0  0  0  0  0  0
  128.9292  147.4251  135.4608 C   0  0  0  0  0  0  0  0  0  0  0  0
  129.8530  144.9374  134.8050 C   0  0  1  0  0  0  0  0  0  0  0  0
  130.9862  145.7516  135.0499 O   0  0  0  0  0  0  0  0  0  0  0  0
  126.1788  138.9277  132.9157 C   0  0  0  0  0  0  0  0  0  0  0  0
  124.8498  138.8522  132.5471 C   0  0  0  0  0  0  0  0  0  0  0  0
  124.2871  137.5979  132.4540 C   0  0  0  0  0  0  0  0  0  0  0  0
  125.0575  136.4579  132.7287 C   0  0  0  0  0  0  0  0  0  0  0  0
  124.7923  134.7609  132.7420 S   0  0  0  0  0  0  0  0  0  0  0  0
  126.3576  134.2607  133.2068 C   0  0  0  0  0  0  0  0  0  0  0  0
  126.9413  132.8912  133.4413 C   0  0  0  0  0  0  0  0  0  0  0  0
  126.9960  135.4092  133.3263 N   0  0  0  0  0  0  0  0  0  0  0  0
  126.3741  136.5260  133.0942 C   0  0  0  0  0  0  0  0  0  0  0  0
  126.9124  137.8206  133.1785 C   0  0  0  0  0  0  0  0  0  0  0  0
  2  1  1  6
  2  3  1  0
  3  4  1  0
  4  5  1  0
  5  6  1  0
  6  7  1  1
  6  8  1  0
  8  9  1  0
  9 10  1  6
 10 11  1  0
 11 12  1  0
 12 13  1  0
 13 14  2  0
 13 15  1  0
 15 16  1  0
 16 17  1  6
 16 18  1  0
 18 19  1  0
 18 20  1  0
 18 21  1  0
 21 22  2  0
 21 23  1  0
 23 24  1  1
 24 25  1  0
 25 26  2  0
 23 27  1  0
 27 28  1  1
 11 29  1  1
 29 30  2  0
 30 31  1  0
 31 32  2  0
 32 33  1  0
 33 34  1  0
 34 35  1  0
 34 36  2  0
 36 37  1  0
 37 38  2  0
 27  2  1  0
 38 29  1  0
  9  6  1  0
 37 32  1  0
M  END
$$$$
