
     RDKit          3D

 38 41  0  0  0  0  0  0  0  0999 V2000
  182.4024  161.6054  135.9184 C   0  0  0  0  0  0  0  0  0  0  0  0
  183.2441  160.5750  136.6727 C   0  0  1  0  0  0  0  0  0  0  0  0
  183.4321  161.0253  138.0899 C   0  0  0  0  0  0  0  0  0  0  0  0
  184.9118  161.2286  138.3409 C   0  0  0  0  0  0  0  0  0  0  0  0
  185.3343  162.4474  137.5081 C   0  0  0  0  0  0  0  0  0  0  0  0
  186.8138  162.5375  137.4509 C   0  0  1  0  0  0  0  0  0  0  0  0
  187.5098  163.2225  138.6294 C   0  0  0  0  0  0  0  0  0  0  0  0
  187.4223  161.1993  137.1924 O   0  0  0  0  0  0  0  0  0  0  0  0
  187.5478  162.2594  136.2927 C   0  0  1  0  0  0  0  0  0  0  0  0
  186.9022  162.1232  134.9589 C   0  0  0  0  0  0  0  0  0  0  0  0
  187.5409  161.0893  134.0537 C   0  0  2  0  0  0  0  0  0  0  0  0
  187.3983  159.8404  134.6473 O   0  0  0  0  0  0  0  0  0  0  0  0
  187.2202  158.6118  134.0954 C   0  0  0  0  0  0  0  0  0  0  0  0
  188.0401  157.6922  134.4745 O   0  0  0  0  0  0  0  0  0  0  0  0
  186.2222  158.1788  133.1229 C   0  0  0  0  0  0  0  0  0  0  0  0
  184.8310  157.9818  133.5767 C   0  0  2  0  0  0  0  0  0  0  0  0
  184.2366  159.2345  133.7363 O   0  0  0  0  0  0  0  0  0  0  0  0
  184.5691  157.0793  134.7332 C   0  0  0  0  0  0  0  0  0  0  0  0
  185.5861  155.9520  134.8508 C   0  0  0  0  0  0  0  0  0  0  0  0
  183.2515  156.3569  134.4028 C   0  0  0  0  0  0  0  0  0  0  0  0
  184.5284  157.7349  136.0533 C   0  0  0  0  0  0  0  0  0  0  0  0
  185.6848  158.0233  136.4356 O   0  0  0  0  0  0  0  0  0  0  0  0
  183.4339  158.0740  136.9182 C   0  0  2  0  0  0  0  0  0  0  0  0
  182.4736  156.9698  137.3102 C   0  0  0  0  0  0  0  0  0  0  0  0
  183.0618  155.6256  137.1253 C   0  0  0  0  0  0  0  0  0  0  0  0
  183.8742  155.0368  137.9913 C   0  0  0  0  0  0  0  0  0  0  0  0
  182.5787  159.2554  136.5057 C   0  0  1  0  0  0  0  0  0  0  0  0
  181.4764  159.2447  137.3954 O   0  0  0  0  0  0  0  0  0  0  0  0
  188.9918  161.4049  133.7782 C   0  0  0  0  0  0  0  0  0  0  0  0
  189.3112  162.7018  133.4265 C   0  0  0  0  0  0  0  0  0  0  0  0
  190.6359  162.9826  133.1721 C   0  0  0  0  0  0  0  0  0  0  0  0
  191.6027  161.9710  133.2737 C   0  0  0  0  0  0  0  0  0  0  0  0
  193.3032  161.8606  133.0581 S   0  0  0  0  0  0  0  0  0  0  0  0
  193.5004  160.2036  133.4213 C   0  0  0  0  0  0  0  0  0  0  0  0
  194.7250  159.3259  133.4544 C   0  0  0  0  0  0  0  0  0  0  0  0
  192.2646  159.8248  133.6864 N   0  0  0  0  0  0  0  0  0  0  0  0
  191.2929  160.6847  133.6215 C   0  0  0  0  0  0  0  0  0  0  0  0
  189.9334  160.4368  133.8731 C   0  0  0  0  0  0  0  0  0  0  0  0
  2  1  1  6
  2  3  1  0
  3  4  1  0
  4  5  1  0
  5  6  1  0
  6  7  1  1
  6  8  1  0
  8  9  1  0
  9 10  1  6
 10 11  1  0
 11 12  1  0
 12 13  1  0
 13 14  2  0
 13 15  1  0
 15 16  1  0
 16 17  1  1
 16 18  1  0
 18 19  1  0
 18 20  1  0
 18 21  1  0
 21 22  2  0
 21 23  1  0
 23 24  1  6
 24 25  1  0
 25 26  2  0
 23 27  1  0
 27 28  1  1
 11 29  1  1
 29 30  2  0
 30 31  1  0
 31 32  2  0
 32 33  1  0
 33 34  1  0
 34 35  1  0
 34 36  2  0
 36 37  1  0
 37 38  2  0
 27  2  1  0
 38 29  1  0
  9  6  1  0
 37 32  1  0
M  END
$$$$
