
     RDKit          3D

 38 41  0  0  0  0  0  0  0  0999 V2000
  124.8211  144.0570  138.2839 C   0  0  0  0  0  0  0  0  0  0  0  0
  126.3402  144.1711  138.4200 C   0  0  1  0  0  0  0  0  0  0  0  0
  126.6719  145.1530  139.5029 C   0  0  0  0  0  0  0  0  0  0  0  0
  127.4466  146.3027  138.8931 C   0  0  0  0  0  0  0  0  0  0  0  0
  126.4638  147.0651  137.9930 C   0  0  0  0  0  0  0  0  0  0  0  0
  127.2004  148.0159  137.1247 C   0  0  1  0  0  0  0  0  0  0  0  0
  127.5499  149.3766  137.7319 C   0  0  0  0  0  0  0  0  0  0  0  0
  128.4171  147.3770  136.5423 O   0  0  0  0  0  0  0  0  0  0  0  0
  127.3585  147.8218  135.7482 C   0  0  1  0  0  0  0  0  0  0  0  0
  126.5747  146.8049  134.9960 C   0  0  0  0  0  0  0  0  0  0  0  0
  127.3318  146.1369  133.8660 C   0  0  2  0  0  0  0  0  0  0  0  0
  128.3988  145.4320  134.4111 O   0  0  0  0  0  0  0  0  0  0  0  0
  128.9817  144.2673  134.0247 C   0  0  0  0  0  0  0  0  0  0  0  0
  130.2603  144.2955  133.8635 O   0  0  0  0  0  0  0  0  0  0  0  0
  128.3603  142.9734  133.7621 C   0  0  0  0  0  0  0  0  0  0  0  0
  127.9069  142.1606  134.9084 C   0  0  2  0  0  0  0  0  0  0  0  0
  126.7217  142.7109  135.3990 O   0  0  0  0  0  0  0  0  0  0  0  0
  128.8749  141.8404  135.9951 C   0  0  0  0  0  0  0  0  0  0  0  0
  130.3127  141.7455  135.5025 C   0  0  0  0  0  0  0  0  0  0  0  0
  128.5390  140.4056  136.4374 C   0  0  0  0  0  0  0  0  0  0  0  0
  128.8907  142.7829  137.1289 C   0  0  0  0  0  0  0  0  0  0  0  0
  129.4746  143.8431  136.8099 O   0  0  0  0  0  0  0  0  0  0  0  0
  128.3718  142.6806  138.4636 C   0  0  2  0  0  0  0  0  0  0  0  0
  128.7980  141.4908  139.2990 C   0  0  0  0  0  0  0  0  0  0  0  0
  128.1224  140.2434  138.8810 C   0  0  0  0  0  0  0  0  0  0  0  0
  128.3682  139.6005  137.7484 C   0  0  0  0  0  0  0  0  0  0  0  0
  126.8689  142.7959  138.6223 C   0  0  1  0  0  0  0  0  0  0  0  0
  126.6113  142.4601  139.9743 O   0  0  0  0  0  0  0  0  0  0  0  0
  127.8018  147.1376  132.8373 C   0  0  0  0  0  0  0  0  0  0  0  0
  127.4089  146.9443  131.5274 C   0  0  0  0  0  0  0  0  0  0  0  0
  127.8445  147.8581  130.5925 C   0  0  0  0  0  0  0  0  0  0  0  0
  128.6552  148.9342  130.9837 C   0  0  0  0  0  0  0  0  0  0  0  0
  129.4053  150.2654  130.1992 S   0  0  0  0  0  0  0  0  0  0  0  0
  130.1585  150.9729  131.5589 C   0  0  0  0  0  0  0  0  0  0  0  0
  131.0221  152.2001  131.6980 C   0  0  0  0  0  0  0  0  0  0  0  0
  129.7993  150.1599  132.5341 N   0  0  0  0  0  0  0  0  0  0  0  0
  129.0478  149.1312  132.2794 C   0  0  0  0  0  0  0  0  0  0  0  0
  128.5845  148.1798  133.2031 C   0  0  0  0  0  0  0  0  0  0  0  0
  2  1  1  1
  2  3  1  0
  3  4  1  0
  4  5  1  0
  5  6  1  0
  6  7  1  6
  6  8  1  0
  8  9  1  0
  9 10  1  1
 10 11  1  0
 11 12  1  0
 12 13  1  0
 13 14  2  0
 13 15  1  0
 15 16  1  0
 16 17  1  1
 16 18  1  0
 18 19  1  0
 18 20  1  0
 18 21  1  0
 21 22  2  0
 21 23  1  0
 23 24  1  6
 24 25  1  0
 25 26  2  0
 23 27  1  0
 27 28  1  1
 11 29  1  6
 29 30  2  0
 30 31  1  0
 31 32  2  0
 32 33  1  0
 33 34  1  0
 34 35  1  0
 34 36  2  0
 36 37  1  0
 37 38  2  0
 27  2  1  0
 38 29  1  0
  9  6  1  0
 37 32  1  0
M  END
$$$$
