
     RDKit          3D

 38 41  0  0  0  0  0  0  0  0999 V2000
  172.6324  160.1066  112.1249 C   0  0  0  0  0  0  0  0  0  0  0  0
  174.0623  160.6360  112.0043 C   0  0  1  0  0  0  0  0  0  0  0  0
  174.7160  160.6194  113.3531 C   0  0  0  0  0  0  0  0  0  0  0  0
  175.0789  162.0399  113.7326 C   0  0  0  0  0  0  0  0  0  0  0  0
  173.7558  162.7809  113.9737 C   0  0  0  0  0  0  0  0  0  0  0  0
  173.9970  164.2425  114.0511 C   0  0  1  0  0  0  0  0  0  0  0  0
  174.4434  164.7977  115.4057 C   0  0  0  0  0  0  0  0  0  0  0  0
  174.9267  164.6897  112.9724 O   0  0  0  0  0  0  0  0  0  0  0  0
  173.6044  165.1317  113.0448 C   0  0  1  0  0  0  0  0  0  0  0  0
  172.6744  164.7332  111.9537 C   0  0  0  0  0  0  0  0  0  0  0  0
  172.9675  165.3741  110.6122 C   0  0  2  0  0  0  0  0  0  0  0  0
  174.2197  164.9454  110.1869 O   0  0  0  0  0  0  0  0  0  0  0  0
  174.6952  164.6986  108.9384 C   0  0  0  0  0  0  0  0  0  0  0  0
  175.7937  165.2928  108.6189 O   0  0  0  0  0  0  0  0  0  0  0  0
  174.1338  163.8477  107.8944 C   0  0  0  0  0  0  0  0  0  0  0  0
  174.2508  162.3827  108.0368 C   0  0  2  0  0  0  0  0  0  0  0  0
  173.3205  161.9552  108.9855 O   0  0  0  0  0  0  0  0  0  0  0  0
  175.5975  161.7830  108.2541 C   0  0  0  0  0  0  0  0  0  0  0  0
  176.7184  162.5876  107.6097 C   0  0  0  0  0  0  0  0  0  0  0  0
  175.5918  160.4601  107.4685 C   0  0  0  0  0  0  0  0  0  0  0  0
  175.9871  161.5916  109.6632 C   0  0  0  0  0  0  0  0  0  0  0  0
  176.3005  162.6857  110.1841 O   0  0  0  0  0  0  0  0  0  0  0  0
  176.0593  160.4154  110.4831 C   0  0  2  0  0  0  0  0  0  0  0  0
  176.8854  159.2503  109.9777 C   0  0  0  0  0  0  0  0  0  0  0  0
  176.2294  158.5450  108.8555 C   0  0  0  0  0  0  0  0  0  0  0  0
  175.6745  159.1469  107.8131 C   0  0  0  0  0  0  0  0  0  0  0  0
  174.7432  159.8308  110.9556 C   0  0  1  0  0  0  0  0  0  0  0  0
  175.0805  158.5921  111.5544 O   0  0  0  0  0  0  0  0  0  0  0  0
  172.8969  166.8810  110.6832 C   0  0  0  0  0  0  0  0  0  0  0  0
  173.8697  167.6012  110.0178 C   0  0  0  0  0  0  0  0  0  0  0  0
  173.8026  168.9756  110.0898 C   0  0  0  0  0  0  0  0  0  0  0  0
  172.7750  169.5937  110.8181 C   0  0  0  0  0  0  0  0  0  0  0  0
  172.3103  171.2089  111.1723 S   0  0  0  0  0  0  0  0  0  0  0  0
  170.9337  170.8759  112.1267 C   0  0  0  0  0  0  0  0  0  0  0  0
  169.9571  171.7866  112.8252 C   0  0  0  0  0  0  0  0  0  0  0  0
  170.9021  169.5568  112.1243 N   0  0  0  0  0  0  0  0  0  0  0  0
  171.8087  168.8860  111.4792 C   0  0  0  0  0  0  0  0  0  0  0  0
  171.9100  167.4883  111.3830 C   0  0  0  0  0  0  0  0  0  0  0  0
  2  1  1  1
  2  3  1  0
  3  4  1  0
  4  5  1  0
  5  6  1  0
  6  7  1  1
  6  8  1  0
  8  9  1  0
  9 10  1  6
 10 11  1  0
 11 12  1  0
 12 13  1  0
 13 14  2  0
 13 15  1  0
 15 16  1  0
 16 17  1  1
 16 18  1  0
 18 19  1  0
 18 20  1  0
 18 21  1  0
 21 22  2  0
 21 23  1  0
 23 24  1  6
 24 25  1  0
 25 26  2  0
 23 27  1  0
 27 28  1  1
 11 29  1  1
 29 30  2  0
 30 31  1  0
 31 32  2  0
 32 33  1  0
 33 34  1  0
 34 35  1  0
 34 36  2  0
 36 37  1  0
 37 38  2  0
 27  2  1  0
 38 29  1  0
  9  6  1  0
 37 32  1  0
M  END
$$$$
