
     RDKit          3D

 38 41  0  0  0  0  0  0  0  0999 V2000
  125.4569  146.7899  137.1266 C   0  0  0  0  0  0  0  0  0  0  0  0
  126.9481  146.5197  137.3321 C   0  0  1  0  0  0  0  0  0  0  0  0
  127.6880  147.8220  137.3895 C   0  0  0  0  0  0  0  0  0  0  0  0
  128.6761  147.8682  136.2426 C   0  0  0  0  0  0  0  0  0  0  0  0
  127.8475  147.9718  134.9540 C   0  0  0  0  0  0  0  0  0  0  0  0
  128.7081  147.7174  133.7729 C   0  0  1  0  0  0  0  0  0  0  0  0
  129.5126  148.9038  133.2366 C   0  0  0  0  0  0  0  0  0  0  0  0
  129.6010  146.5438  134.0036 O   0  0  0  0  0  0  0  0  0  0  0  0
  128.6225  146.5491  133.0079 C   0  0  1  0  0  0  0  0  0  0  0  0
  127.4868  145.5968  133.1400 C   0  0  0  0  0  0  0  0  0  0  0  0
  127.8641  144.1398  132.9637 C   0  0  2  0  0  0  0  0  0  0  0  0
  128.7429  143.7892  133.9822 O   0  0  0  0  0  0  0  0  0  0  0  0
  128.9080  142.6150  134.6455 C   0  0  0  0  0  0  0  0  0  0  0  0
  130.1077  142.1447  134.6823 O   0  0  0  0  0  0  0  0  0  0  0  0
  127.9100  141.7998  135.3299 C   0  0  0  0  0  0  0  0  0  0  0  0
  127.3940  142.2603  136.6346 C   0  0  2  0  0  0  0  0  0  0  0  0
  126.4935  143.3029  136.4106 O   0  0  0  0  0  0  0  0  0  0  0  0
  128.3609  142.5717  137.7248 C   0  0  0  0  0  0  0  0  0  0  0  0
  129.6326  141.7375  137.6488 C   0  0  0  0  0  0  0  0  0  0  0  0
  127.6847  142.0992  139.0235 C   0  0  0  0  0  0  0  0  0  0  0  0
  128.7965  143.9781  137.8042 C   0  0  0  0  0  0  0  0  0  0  0  0
  129.6156  144.2357  136.8934 O   0  0  0  0  0  0  0  0  0  0  0  0
  128.4488  145.0363  138.7100 C   0  0  2  0  0  0  0  0  0  0  0  0
  128.6173  144.7813  140.1938 C   0  0  0  0  0  0  0  0  0  0  0  0
  128.4041  143.3605  140.5447 C   0  0  0  0  0  0  0  0  0  0  0  0
  127.2964  142.6814  140.2829 C   0  0  0  0  0  0  0  0  0  0  0  0
  127.0777  145.6589  138.5380 C   0  0  1  0  0  0  0  0  0  0  0  0
  126.9124  146.5089  139.6593 O   0  0  0  0  0  0  0  0  0  0  0  0
  128.4654  143.8768  131.6037 C   0  0  0  0  0  0  0  0  0  0  0  0
  128.4725  142.5736  131.1460 C   0  0  0  0  0  0  0  0  0  0  0  0
  129.0265  142.3392  129.9064 C   0  0  0  0  0  0  0  0  0  0  0  0
  129.5559  143.4019  129.1588 C   0  0  0  0  0  0  0  0  0  0  0  0
  130.3157  143.5785  127.6285 S   0  0  0  0  0  0  0  0  0  0  0  0
  130.5731  145.2664  127.6635 C   0  0  0  0  0  0  0  0  0  0  0  0
  131.2025  146.2030  126.6646 C   0  0  0  0  0  0  0  0  0  0  0  0
  130.0681  145.6037  128.8350 N   0  0  0  0  0  0  0  0  0  0  0  0
  129.5519  144.6946  129.6065 C   0  0  0  0  0  0  0  0  0  0  0  0
  128.9793  144.8943  130.8735 C   0  0  0  0  0  0  0  0  0  0  0  0
  2  1  1  1
  2  3  1  0
  3  4  1  0
  4  5  1  0
  5  6  1  0
  6  7  1  6
  6  8  1  0
  8  9  1  0
  9 10  1  1
 10 11  1  0
 11 12  1  0
 12 13  1  0
 13 14  2  0
 13 15  1  0
 15 16  1  0
 16 17  1  6
 16 18  1  0
 18 19  1  0
 18 20  1  0
 18 21  1  0
 21 22  2  0
 21 23  1  0
 23 24  1  1
 24 25  1  0
 25 26  2  0
 23 27  1  0
 27 28  1  1
 11 29  1  6
 29 30  2  0
 30 31  1  0
 31 32  2  0
 32 33  1  0
 33 34  1  0
 34 35  1  0
 34 36  2  0
 36 37  1  0
 37 38  2  0
 27  2  1  0
 38 29  1  0
  9  6  1  0
 37 32  1  0
M  END
$$$$
