
     RDKit          3D

 38 41  0  0  0  0  0  0  0  0999 V2000
  201.8680  130.0807  135.1553 C   0  0  0  0  0  0  0  0  0  0  0  0
  201.7008  131.4978  134.6048 C   0  0  1  0  0  0  0  0  0  0  0  0
  200.3724  131.6138  133.9202 C   0  0  0  0  0  0  0  0  0  0  0  0
  200.6073  131.9387  132.4598 C   0  0  0  0  0  0  0  0  0  0  0  0
  201.2391  130.6896  131.8288 C   0  0  0  0  0  0  0  0  0  0  0  0
  201.7803  131.0149  130.4865 C   0  0  1  0  0  0  0  0  0  0  0  0
  200.7918  130.9871  129.3183 C   0  0  0  0  0  0  0  0  0  0  0  0
  202.5252  132.3082  130.5084 O   0  0  0  0  0  0  0  0  0  0  0  0
  203.1512  131.0944  130.2189 C   0  0  1  0  0  0  0  0  0  0  0  0
  204.1757  130.5919  131.1740 C   0  0  0  0  0  0  0  0  0  0  0  0
  205.4525  131.4070  131.2132 C   0  0  2  0  0  0  0  0  0  0  0  0
  205.1420  132.6849  131.6640 O   0  0  0  0  0  0  0  0  0  0  0  0
  205.8591  133.5569  132.4197 C   0  0  0  0  0  0  0  0  0  0  0  0
  206.0017  134.7445  131.9391 O   0  0  0  0  0  0  0  0  0  0  0  0
  206.4993  133.3391  133.7127 C   0  0  0  0  0  0  0  0  0  0  0  0
  205.6508  133.2661  134.9190 C   0  0  2  0  0  0  0  0  0  0  0  0
  205.0201  132.0212  134.9409 O   0  0  0  0  0  0  0  0  0  0  0  0
  204.7084  134.3835  135.2083 C   0  0  0  0  0  0  0  0  0  0  0  0
  205.2038  135.7283  134.6936 C   0  0  0  0  0  0  0  0  0  0  0  0
  204.7179  134.5458  136.7382 C   0  0  0  0  0  0  0  0  0  0  0  0
  203.3439  134.2171  134.6749 C   0  0  0  0  0  0  0  0  0  0  0  0
  203.3287  134.4160  133.4393 O   0  0  0  0  0  0  0  0  0  0  0  0
  202.1026  133.8825  135.3139 C   0  0  2  0  0  0  0  0  0  0  0  0
  201.6620  134.7289  136.4906 C   0  0  0  0  0  0  0  0  0  0  0  0
  202.5184  134.5235  137.6787 C   0  0  0  0  0  0  0  0  0  0  0  0
  202.6542  133.3687  138.3149 C   0  0  0  0  0  0  0  0  0  0  0  0
  201.9197  132.4384  135.7359 C   0  0  1  0  0  0  0  0  0  0  0  0
  200.7315  132.4243  136.5071 O   0  0  0  0  0  0  0  0  0  0  0  0
  206.1324  131.4494  129.8654 C   0  0  0  0  0  0  0  0  0  0  0  0
  206.8239  130.3248  129.4596 C   0  0  0  0  0  0  0  0  0  0  0  0
  207.4458  130.3710  128.2309 C   0  0  0  0  0  0  0  0  0  0  0  0
  207.3637  131.5288  127.4427 C   0  0  0  0  0  0  0  0  0  0  0  0
  207.9548  132.0232  125.9077 S   0  0  0  0  0  0  0  0  0  0  0  0
  207.2992  133.5998  125.8764 C   0  0  0  0  0  0  0  0  0  0  0  0
  207.3734  134.6934  124.8421 C   0  0  0  0  0  0  0  0  0  0  0  0
  206.6673  133.6646  127.0329 N   0  0  0  0  0  0  0  0  0  0  0  0
  206.6805  132.6458  127.8390 C   0  0  0  0  0  0  0  0  0  0  0  0
  206.0601  132.5611  129.0963 C   0  0  0  0  0  0  0  0  0  0  0  0
  2  1  1  1
  2  3  1  0
  3  4  1  0
  4  5  1  0
  5  6  1  0
  6  7  1  6
  6  8  1  0
  8  9  1  0
  9 10  1  1
 10 11  1  0
 11 12  1  0
 12 13  1  0
 13 14  2  0
 13 15  1  0
 15 16  1  0
 16 17  1  6
 16 18  1  0
 18 19  1  0
 18 20  1  0
 18 21  1  0
 21 22  2  0
 21 23  1  0
 23 24  1  1
 24 25  1  0
 25 26  2  0
 23 27  1  0
 27 28  1  1
 11 29  1  6
 29 30  2  0
 30 31  1  0
 31 32  2  0
 32 33  1  0
 33 34  1  0
 34 35  1  0
 34 36  2  0
 36 37  1  0
 37 38  2  0
 27  2  1  0
 38 29  1  0
  9  6  1  0
 37 32  1  0
M  END
$$$$
