
     RDKit          3D

 38 41  0  0  0  0  0  0  0  0999 V2000
  167.7243  146.9024  124.3876 C   0  0  0  0  0  0  0  0  0  0  0  0
  168.5659  147.9092  125.1732 C   0  0  1  0  0  0  0  0  0  0  0  0
  168.6469  149.1960  124.4089 C   0  0  0  0  0  0  0  0  0  0  0  0
  170.0977  149.4661  124.0681 C   0  0  0  0  0  0  0  0  0  0  0  0
  170.5126  148.4016  123.0423 C   0  0  0  0  0  0  0  0  0  0  0  0
  171.9871  148.3972  122.8803 C   0  0  1  0  0  0  0  0  0  0  0  0
  172.5780  149.4235  121.9107 C   0  0  0  0  0  0  0  0  0  0  0  0
  172.6716  148.4766  124.2043 O   0  0  0  0  0  0  0  0  0  0  0  0
  172.8017  147.3684  123.3653 C   0  0  1  0  0  0  0  0  0  0  0  0
  172.2448  146.0699  123.8323 C   0  0  0  0  0  0  0  0  0  0  0  0
  172.9844  145.4528  125.0021 C   0  0  2  0  0  0  0  0  0  0  0  0
  172.8644  146.3048  126.0940 O   0  0  0  0  0  0  0  0  0  0  0  0
  172.7773  146.0359  127.4229 C   0  0  0  0  0  0  0  0  0  0  0  0
  173.6147  146.6516  128.1853 O   0  0  0  0  0  0  0  0  0  0  0  0
  171.8610  145.1388  128.1192 C   0  0  0  0  0  0  0  0  0  0  0  0
  170.4556  145.5574  128.2919 C   0  0  2  0  0  0  0  0  0  0  0  0
  169.7951  145.4018  127.0722 O   0  0  0  0  0  0  0  0  0  0  0  0
  170.1667  146.8734  128.9285 C   0  0  0  0  0  0  0  0  0  0  0  0
  171.2260  147.2909  129.9395 C   0  0  0  0  0  0  0  0  0  0  0  0
  168.9064  146.6508  129.7825 C   0  0  0  0  0  0  0  0  0  0  0  0
  170.0159  148.0083  127.9993 C   0  0  0  0  0  0  0  0  0  0  0  0
  171.1324  148.3714  127.5656 O   0  0  0  0  0  0  0  0  0  0  0  0
  168.8566  148.7206  127.5414 C   0  0  2  0  0  0  0  0  0  0  0  0
  167.9268  149.3043  128.5854 C   0  0  0  0  0  0  0  0  0  0  0  0
  168.6391  150.1781  129.5426 C   0  0  0  0  0  0  0  0  0  0  0  0
  169.1344  151.3707  129.2441 C   0  0  0  0  0  0  0  0  0  0  0  0
  167.9739  148.0117  126.5337 C   0  0  1  0  0  0  0  0  0  0  0  0
  166.8215  148.8265  126.4112 O   0  0  0  0  0  0  0  0  0  0  0  0
  174.4330  145.1839  124.6709 C   0  0  0  0  0  0  0  0  0  0  0  0
  174.7425  143.9750  124.0789 C   0  0  0  0  0  0  0  0  0  0  0  0
  176.0664  143.7335  123.7831 C   0  0  0  0  0  0  0  0  0  0  0  0
  177.0422  144.6961  124.0826 C   0  0  0  0  0  0  0  0  0  0  0  0
  178.7454  144.8267  123.9026 S   0  0  0  0  0  0  0  0  0  0  0  0
  178.9559  146.3809  124.5785 C   0  0  0  0  0  0  0  0  0  0  0  0
  180.1888  147.2220  124.7871 C   0  0  0  0  0  0  0  0  0  0  0  0
  177.7218  146.7157  124.9037 N   0  0  0  0  0  0  0  0  0  0  0  0
  176.7422  145.8951  124.6689 C   0  0  0  0  0  0  0  0  0  0  0  0
  175.3832  146.1052  124.9554 C   0  0  0  0  0  0  0  0  0  0  0  0
  2  1  1  6
  2  3  1  0
  3  4  1  0
  4  5  1  0
  5  6  1  0
  6  7  1  6
  6  8  1  0
  8  9  1  0
  9 10  1  1
 10 11  1  0
 11 12  1  0
 12 13  1  0
 13 14  2  0
 13 15  1  0
 15 16  1  0
 16 17  1  6
 16 18  1  0
 18 19  1  0
 18 20  1  0
 18 21  1  0
 21 22  2  0
 21 23  1  0
 23 24  1  1
 24 25  1  0
 25 26  2  0
 23 27  1  0
 27 28  1  6
 11 29  1  6
 29 30  2  0
 30 31  1  0
 31 32  2  0
 32 33  1  0
 33 34  1  0
 34 35  1  0
 34 36  2  0
 36 37  1  0
 37 38  2  0
 27  2  1  0
 38 29  1  0
  9  6  1  0
 37 32  1  0
M  END
$$$$
