
     RDKit          3D

 38 41  0  0  0  0  0  0  0  0999 V2000
  149.1526  171.1097  134.1844 C   0  0  0  0  0  0  0  0  0  0  0  0
  148.1598  170.9986  133.0264 C   0  0  1  0  0  0  0  0  0  0  0  0
  146.8002  171.4245  133.4920 C   0  0  0  0  0  0  0  0  0  0  0  0
  145.8531  170.2502  133.3586 C   0  0  0  0  0  0  0  0  0  0  0  0
  146.2915  169.2126  134.4021 C   0  0  0  0  0  0  0  0  0  0  0  0
  145.6215  167.9147  134.1431 C   0  0  1  0  0  0  0  0  0  0  0  0
  144.2090  167.7426  134.7066 C   0  0  0  0  0  0  0  0  0  0  0  0
  145.6471  167.5797  132.6888 O   0  0  0  0  0  0  0  0  0  0  0  0
  146.2982  166.7967  133.6438 C   0  0  1  0  0  0  0  0  0  0  0  0
  147.7838  166.7263  133.5938 C   0  0  0  0  0  0  0  0  0  0  0  0
  148.3382  165.9830  132.3953 C   0  0  2  0  0  0  0  0  0  0  0  0
  147.9757  166.6751  131.2454 O   0  0  0  0  0  0  0  0  0  0  0  0
  148.6292  166.8372  130.0653 C   0  0  0  0  0  0  0  0  0  0  0  0
  147.9668  166.5373  129.0009 O   0  0  0  0  0  0  0  0  0  0  0  0
  149.9900  167.3071  129.8272 C   0  0  0  0  0  0  0  0  0  0  0  0
  150.2785  168.7469  129.9819 C   0  0  2  0  0  0  0  0  0  0  0  0
  150.3385  169.0416  131.3448 O   0  0  0  0  0  0  0  0  0  0  0  0
  149.4579  169.7337  129.2248 C   0  0  0  0  0  0  0  0  0  0  0  0
  148.9432  169.1879  127.8996 C   0  0  0  0  0  0  0  0  0  0  0  0
  150.4323  170.8506  128.8123 C   0  0  0  0  0  0  0  0  0  0  0  0
  148.2792  170.2590  129.9380 C   0  0  0  0  0  0  0  0  0  0  0  0
  147.3674  169.4021  129.9690 O   0  0  0  0  0  0  0  0  0  0  0  0
  148.0283  171.5257  130.5654 C   0  0  2  0  0  0  0  0  0  0  0  0
  148.2262  172.7777  129.7358 C   0  0  0  0  0  0  0  0  0  0  0  0
  147.6788  173.9806  130.3995 C   0  0  0  0  0  0  0  0  0  0  0  0
  147.4956  174.0979  131.7070 C   0  0  0  0  0  0  0  0  0  0  0  0
  148.7186  171.7796  131.8907 C   0  0  1  0  0  0  0  0  0  0  0  0
  148.4742  173.1443  132.1814 O   0  0  0  0  0  0  0  0  0  0  0  0
  147.8569  164.5523  132.3509 C   0  0  0  0  0  0  0  0  0  0  0  0
  147.2878  164.1027  131.1754 C   0  0  0  0  0  0  0  0  0  0  0  0
  146.8465  162.7978  131.1423 C   0  0  0  0  0  0  0  0  0  0  0  0
  146.9823  161.9792  132.2737 C   0  0  0  0  0  0  0  0  0  0  0  0
  146.5929  160.3560  132.6785 S   0  0  0  0  0  0  0  0  0  0  0  0
  147.1665  160.3485  134.2870 C   0  0  0  0  0  0  0  0  0  0  0  0
  147.1863  159.2672  135.3366 C   0  0  0  0  0  0  0  0  0  0  0  0
  147.6223  161.5786  134.4288 N   0  0  0  0  0  0  0  0  0  0  0  0
  147.5450  162.4185  133.4407 C   0  0  0  0  0  0  0  0  0  0  0  0
  147.9827  163.7532  133.4364 C   0  0  0  0  0  0  0  0  0  0  0  0
  2  1  1  1
  2  3  1  0
  3  4  1  0
  4  5  1  0
  5  6  1  0
  6  7  1  1
  6  8  1  0
  8  9  1  0
  9 10  1  6
 10 11  1  0
 11 12  1  0
 12 13  1  0
 13 14  2  0
 13 15  1  0
 15 16  1  0
 16 17  1  1
 16 18  1  0
 18 19  1  0
 18 20  1  0
 18 21  1  0
 21 22  2  0
 21 23  1  0
 23 24  1  6
 24 25  1  0
 25 26  2  0
 23 27  1  0
 27 28  1  1
 11 29  1  6
 29 30  2  0
 30 31  1  0
 31 32  2  0
 32 33  1  0
 33 34  1  0
 34 35  1  0
 34 36  2  0
 36 37  1  0
 37 38  2  0
 27  2  1  0
 38 29  1  0
  9  6  1  0
 37 32  1  0
M  END
$$$$
