
     RDKit          3D

 38 41  0  0  0  0  0  0  0  0999 V2000
  124.8640  143.9206  134.0169 C   0  0  0  0  0  0  0  0  0  0  0  0
  126.1689  144.7121  134.1163 C   0  0  1  0  0  0  0  0  0  0  0  0
  126.0482  145.9756  133.3191 C   0  0  0  0  0  0  0  0  0  0  0  0
  127.0851  145.9526  132.2155 C   0  0  0  0  0  0  0  0  0  0  0  0
  126.6547  144.8544  131.2324 C   0  0  0  0  0  0  0  0  0  0  0  0
  127.7593  144.5530  130.2894 C   0  0  1  0  0  0  0  0  0  0  0  0
  127.8898  145.4630  129.0657 C   0  0  0  0  0  0  0  0  0  0  0  0
  129.0643  144.4542  131.0071 O   0  0  0  0  0  0  0  0  0  0  0  0
  128.4987  143.3663  130.3395 C   0  0  1  0  0  0  0  0  0  0  0  0
  128.0663  142.1968  131.1516 C   0  0  0  0  0  0  0  0  0  0  0  0
  129.2014  141.4096  131.7746 C   0  0  2  0  0  0  0  0  0  0  0  0
  129.8683  142.2377  132.6701 O   0  0  0  0  0  0  0  0  0  0  0  0
  130.4859  141.9558  133.8469 C   0  0  0  0  0  0  0  0  0  0  0  0
  131.7023  142.3660  133.9650 O   0  0  0  0  0  0  0  0  0  0  0  0
  129.9638  141.2462  135.0101 C   0  0  0  0  0  0  0  0  0  0  0  0
  128.9978  141.9386  135.8864 C   0  0  2  0  0  0  0  0  0  0  0  0
  127.7561  141.9550  135.2492 O   0  0  0  0  0  0  0  0  0  0  0  0
  129.3606  143.2677  136.4538 C   0  0  0  0  0  0  0  0  0  0  0  0
  130.8583  143.4318  136.6749 C   0  0  0  0  0  0  0  0  0  0  0  0
  128.7720  143.2842  137.8752 C   0  0  0  0  0  0  0  0  0  0  0  0
  128.9324  144.4347  135.6608 C   0  0  0  0  0  0  0  0  0  0  0  0
  129.6640  144.5735  134.6546 O   0  0  0  0  0  0  0  0  0  0  0  0
  127.8700  145.3813  135.8511 C   0  0  2  0  0  0  0  0  0  0  0  0
  127.8041  146.1138  137.1755 C   0  0  0  0  0  0  0  0  0  0  0  0
  129.1028  146.1082  137.8828 C   0  0  0  0  0  0  0  0  0  0  0  0
  129.3492  145.4280  138.9934 C   0  0  0  0  0  0  0  0  0  0  0  0
  126.4636  144.8960  135.5624 C   0  0  1  0  0  0  0  0  0  0  0  0
  125.6121  145.9323  136.0183 O   0  0  0  0  0  0  0  0  0  0  0  0
  130.1422  140.8593  130.7292 C   0  0  0  0  0  0  0  0  0  0  0  0
  129.8199  139.6478  130.1494 C   0  0  0  0  0  0  0  0  0  0  0  0
  130.6842  139.1487  129.1996 C   0  0  0  0  0  0  0  0  0  0  0  0
  131.8403  139.8643  128.8535 C   0  0  0  0  0  0  0  0  0  0  0  0
  133.1532  139.6414  127.7687 S   0  0  0  0  0  0  0  0  0  0  0  0
  134.0155  141.0750  128.1122 C   0  0  0  0  0  0  0  0  0  0  0  0
  135.3057  141.6229  127.5588 C   0  0  0  0  0  0  0  0  0  0  0  0
  133.2595  141.6445  129.0315 N   0  0  0  0  0  0  0  0  0  0  0  0
  132.1651  141.0645  129.4240 C   0  0  0  0  0  0  0  0  0  0  0  0
  131.2607  141.5410  130.3873 C   0  0  0  0  0  0  0  0  0  0  0  0
  2  1  1  1
  2  3  1  0
  3  4  1  0
  4  5  1  0
  5  6  1  0
  6  7  1  6
  6  8  1  0
  8  9  1  0
  9 10  1  1
 10 11  1  0
 11 12  1  0
 12 13  1  0
 13 14  2  0
 13 15  1  0
 15 16  1  0
 16 17  1  6
 16 18  1  0
 18 19  1  0
 18 20  1  0
 18 21  1  0
 21 22  2  0
 21 23  1  0
 23 24  1  1
 24 25  1  0
 25 26  2  0
 23 27  1  0
 27 28  1  6
 11 29  1  6
 29 30  2  0
 30 31  1  0
 31 32  2  0
 32 33  1  0
 33 34  1  0
 34 35  1  0
 34 36  2  0
 36 37  1  0
 37 38  2  0
 27  2  1  0
 38 29  1  0
  9  6  1  0
 37 32  1  0
M  END
$$$$
