
     RDKit          3D

 38 41  0  0  0  0  0  0  0  0999 V2000
  115.4520  163.3665  147.1804 C   0  0  0  0  0  0  0  0  0  0  0  0
  115.6235  163.6751  145.6923 C   0  0  1  0  0  0  0  0  0  0  0  0
  116.3374  162.5380  145.0258 C   0  0  0  0  0  0  0  0  0  0  0  0
  117.6447  163.0523  144.4600 C   0  0  0  0  0  0  0  0  0  0  0  0
  118.5379  163.3946  145.6610 C   0  0  0  0  0  0  0  0  0  0  0  0
  119.7117  164.1841  145.2147 C   0  0  1  0  0  0  0  0  0  0  0  0
  120.9072  163.3971  144.6727 C   0  0  0  0  0  0  0  0  0  0  0  0
  119.3061  165.2472  144.2486 O   0  0  0  0  0  0  0  0  0  0  0  0
  119.8615  165.5468  145.4939 C   0  0  1  0  0  0  0  0  0  0  0  0
  119.0071  166.2507  146.4883 C   0  0  0  0  0  0  0  0  0  0  0  0
  118.6756  167.6851  146.1293 C   0  0  2  0  0  0  0  0  0  0  0  0
  117.9281  167.6811  144.9572 O   0  0  0  0  0  0  0  0  0  0  0  0
  116.9272  168.5002  144.5414 C   0  0  0  0  0  0  0  0  0  0  0  0
  117.0716  169.0305  143.3753 O   0  0  0  0  0  0  0  0  0  0  0  0
  115.6976  168.8709  145.2341 C   0  0  0  0  0  0  0  0  0  0  0  0
  114.6086  167.8776  145.3229 C   0  0  2  0  0  0  0  0  0  0  0  0
  114.9521  166.9305  146.2888 O   0  0  0  0  0  0  0  0  0  0  0  0
  114.0987  167.2505  144.0710 C   0  0  0  0  0  0  0  0  0  0  0  0
  114.2125  168.1644  142.8583 C   0  0  0  0  0  0  0  0  0  0  0  0
  112.5820  167.0939  144.2761 C   0  0  0  0  0  0  0  0  0  0  0  0
  114.7428  165.9801  143.6897 C   0  0  0  0  0  0  0  0  0  0  0  0
  115.8823  166.1908  143.2166 O   0  0  0  0  0  0  0  0  0  0  0  0
  114.2934  164.6191  143.7711 C   0  0  2  0  0  0  0  0  0  0  0  0
  112.9673  164.2721  143.1261 C   0  0  0  0  0  0  0  0  0  0  0  0
  113.1369  163.4643  141.8989 C   0  0  0  0  0  0  0  0  0  0  0  0
  112.7754  163.8579  140.6860 C   0  0  0  0  0  0  0  0  0  0  0  0
  114.2749  163.9877  145.1488 C   0  0  1  0  0  0  0  0  0  0  0  0
  113.6113  162.7475  144.9802 O   0  0  0  0  0  0  0  0  0  0  0  0
  119.9197  168.5290  145.9852 C   0  0  0  0  0  0  0  0  0  0  0  0
  120.4467  169.0962  147.1290 C   0  0  0  0  0  0  0  0  0  0  0  0
  121.5792  169.8688  146.9908 C   0  0  0  0  0  0  0  0  0  0  0  0
  122.1544  170.0555  145.7248 C   0  0  0  0  0  0  0  0  0  0  0  0
  123.5108  170.9014  145.0963 S   0  0  0  0  0  0  0  0  0  0  0  0
  123.3284  170.4901  143.4488 C   0  0  0  0  0  0  0  0  0  0  0  0
  124.1403  170.8520  142.2319 C   0  0  0  0  0  0  0  0  0  0  0  0
  122.2478  169.7330  143.4660 N   0  0  0  0  0  0  0  0  0  0  0  0
  121.6374  169.4965  144.5882 C   0  0  0  0  0  0  0  0  0  0  0  0
  120.4834  168.7163  144.7687 C   0  0  0  0  0  0  0  0  0  0  0  0
  2  1  1  1
  2  3  1  0
  3  4  1  0
  4  5  1  0
  5  6  1  0
  6  7  1  6
  6  8  1  0
  8  9  1  0
  9 10  1  1
 10 11  1  0
 11 12  1  0
 12 13  1  0
 13 14  2  0
 13 15  1  0
 15 16  1  0
 16 17  1  1
 16 18  1  0
 18 19  1  0
 18 20  1  0
 18 21  1  0
 21 22  2  0
 21 23  1  0
 23 24  1  1
 24 25  1  0
 25 26  2  0
 23 27  1  0
 27 28  1  6
 11 29  1  6
 29 30  2  0
 30 31  1  0
 31 32  2  0
 32 33  1  0
 33 34  1  0
 34 35  1  0
 34 36  2  0
 36 37  1  0
 37 38  2  0
 27  2  1  0
 38 29  1  0
  9  6  1  0
 37 32  1  0
M  END
$$$$
