
     RDKit          3D

 38 41  0  0  0  0  0  0  0  0999 V2000
  187.3924  157.5570  121.0667 C   0  0  0  0  0  0  0  0  0  0  0  0
  188.9156  157.4741  121.1762 C   0  0  1  0  0  0  0  0  0  0  0  0
  189.3085  156.1063  121.6469 C   0  0  0  0  0  0  0  0  0  0  0  0
  190.0244  156.2385  122.9749 C   0  0  0  0  0  0  0  0  0  0  0  0
  188.9722  156.6917  123.9971 C   0  0  0  0  0  0  0  0  0  0  0  0
  189.6348  157.1383  125.2469 C   0  0  1  0  0  0  0  0  0  0  0  0
  190.0078  156.0508  126.2571 C   0  0  0  0  0  0  0  0  0  0  0  0
  190.8167  157.9997  124.9481 O   0  0  0  0  0  0  0  0  0  0  0  0
  189.7002  158.4811  125.6342 C   0  0  1  0  0  0  0  0  0  0  0  0
  188.8796  159.5357  124.9794 C   0  0  0  0  0  0  0  0  0  0  0  0
  189.5656  160.8814  124.8578 C   0  0  2  0  0  0  0  0  0  0  0  0
  190.6767  160.7332  124.0356 O   0  0  0  0  0  0  0  0  0  0  0  0
  191.2464  161.5936  123.1519 C   0  0  0  0  0  0  0  0  0  0  0  0
  192.5105  161.8027  123.2940 O   0  0  0  0  0  0  0  0  0  0  0  0
  190.6252  162.3241  122.0521 C   0  0  0  0  0  0  0  0  0  0  0  0
  190.2624  161.5841  120.8269 C   0  0  2  0  0  0  0  0  0  0  0  0
  189.1068  160.8444  121.0832 O   0  0  0  0  0  0  0  0  0  0  0  0
  191.3070  160.7800  120.1323 C   0  0  0  0  0  0  0  0  0  0  0  0
  192.7086  161.3505  120.3026 C   0  0  0  0  0  0  0  0  0  0  0  0
  191.0210  160.9418  118.6293 C   0  0  0  0  0  0  0  0  0  0  0  0
  191.3888  159.3635  120.5337 C   0  0  0  0  0  0  0  0  0  0  0  0
  191.9356  159.2561  121.6545 O   0  0  0  0  0  0  0  0  0  0  0  0
  190.9645  158.1588  119.8783 C   0  0  2  0  0  0  0  0  0  0  0  0
  191.4625  157.9066  118.4699 C   0  0  0  0  0  0  0  0  0  0  0  0
  192.7763  158.5379  118.2201 C   0  0  0  0  0  0  0  0  0  0  0  0
  193.9431  157.9863  118.5221 C   0  0  0  0  0  0  0  0  0  0  0  0
  189.4747  157.8804  119.8593 C   0  0  1  0  0  0  0  0  0  0  0  0
  189.3153  156.7701  118.9941 O   0  0  0  0  0  0  0  0  0  0  0  0
  189.9507  161.4386  126.2076 C   0  0  0  0  0  0  0  0  0  0  0  0
  189.3423  162.6093  126.6161 C   0  0  0  0  0  0  0  0  0  0  0  0
  189.7009  163.1152  127.8466 C   0  0  0  0  0  0  0  0  0  0  0  0
  190.6503  162.4464  128.6338 C   0  0  0  0  0  0  0  0  0  0  0  0
  191.3770  162.6942  130.1703 S   0  0  0  0  0  0  0  0  0  0  0  0
  192.3908  161.3201  130.1988 C   0  0  0  0  0  0  0  0  0  0  0  0
  193.3654  160.8177  131.2326 C   0  0  0  0  0  0  0  0  0  0  0  0
  192.1221  160.7484  129.0404 N   0  0  0  0  0  0  0  0  0  0  0  0
  191.2564  161.2866  128.2349 C   0  0  0  0  0  0  0  0  0  0  0  0
  190.8656  160.8019  126.9758 C   0  0  0  0  0  0  0  0  0  0  0  0
  2  1  1  6
  2  3  1  0
  3  4  1  0
  4  5  1  0
  5  6  1  0
  6  7  1  1
  6  8  1  0
  8  9  1  0
  9 10  1  6
 10 11  1  0
 11 12  1  0
 12 13  1  0
 13 14  2  0
 13 15  1  0
 15 16  1  0
 16 17  1  1
 16 18  1  0
 18 19  1  0
 18 20  1  0
 18 21  1  0
 21 22  2  0
 21 23  1  0
 23 24  1  6
 24 25  1  0
 25 26  2  0
 23 27  1  0
 27 28  1  6
 11 29  1  1
 29 30  2  0
 30 31  1  0
 31 32  2  0
 32 33  1  0
 33 34  1  0
 34 35  1  0
 34 36  2  0
 36 37  1  0
 37 38  2  0
 27  2  1  0
 38 29  1  0
  9  6  1  0
 37 32  1  0
M  END
$$$$
