
     RDKit          3D

 38 41  0  0  0  0  0  0  0  0999 V2000
  148.8971  170.0428  134.9962 C   0  0  0  0  0  0  0  0  0  0  0  0
  147.6342  169.9861  134.1354 C   0  0  1  0  0  0  0  0  0  0  0  0
  146.4992  169.4424  134.9497 C   0  0  0  0  0  0  0  0  0  0  0  0
  146.0207  168.1541  134.3133 C   0  0  0  0  0  0  0  0  0  0  0  0
  147.1423  167.1243  134.5111 C   0  0  0  0  0  0  0  0  0  0  0  0
  146.8954  165.9325  133.6630 C   0  0  1  0  0  0  0  0  0  0  0  0
  145.9506  164.8684  134.2262 C   0  0  0  0  0  0  0  0  0  0  0  0
  146.4711  166.3317  132.2888 O   0  0  0  0  0  0  0  0  0  0  0  0
  147.6579  165.6365  132.5280 C   0  0  1  0  0  0  0  0  0  0  0  0
  148.9429  166.3271  132.2343 C   0  0  0  0  0  0  0  0  0  0  0  0
  149.2079  166.5623  130.7609 C   0  0  2  0  0  0  0  0  0  0  0  0
  148.2255  167.4149  130.2704 O   0  0  0  0  0  0  0  0  0  0  0  0
  148.2830  168.3739  129.3099 C   0  0  0  0  0  0  0  0  0  0  0  0
  147.4033  168.2940  128.3710 O   0  0  0  0  0  0  0  0  0  0  0  0
  149.2093  169.4947  129.1867 C   0  0  0  0  0  0  0  0  0  0  0  0
  149.0403  170.6542  130.0852 C   0  0  2  0  0  0  0  0  0  0  0  0
  149.5167  170.3063  131.3501 O   0  0  0  0  0  0  0  0  0  0  0  0
  147.7157  171.3340  130.1462 C   0  0  0  0  0  0  0  0  0  0  0  0
  146.9450  171.2548  128.8353 C   0  0  0  0  0  0  0  0  0  0  0  0
  148.0277  172.8324  130.3029 C   0  0  0  0  0  0  0  0  0  0  0  0
  146.7986  170.8443  131.1919 C   0  0  0  0  0  0  0  0  0  0  0  0
  146.3083  169.7406  130.8634 O   0  0  0  0  0  0  0  0  0  0  0  0
  146.4031  171.4030  132.4538 C   0  0  2  0  0  0  0  0  0  0  0  0
  145.8409  172.8098  132.4595 C   0  0  0  0  0  0  0  0  0  0  0  0
  146.8104  173.8014  131.9455 C   0  0  0  0  0  0  0  0  0  0  0  0
  147.9961  174.0414  132.4868 C   0  0  0  0  0  0  0  0  0  0  0  0
  147.4220  171.3470  133.5744 C   0  0  1  0  0  0  0  0  0  0  0  0
  146.8705  172.1312  134.6174 O   0  0  0  0  0  0  0  0  0  0  0  0
  149.2500  165.2675  129.9849 C   0  0  0  0  0  0  0  0  0  0  0  0
  150.3801  164.4828  130.1061 C   0  0  0  0  0  0  0  0  0  0  0  0
  150.4146  163.3047  129.3923 C   0  0  0  0  0  0  0  0  0  0  0  0
  149.3294  162.9405  128.5810 C   0  0  0  0  0  0  0  0  0  0  0  0
  148.9439  161.6202  127.5521 S   0  0  0  0  0  0  0  0  0  0  0  0
  147.3987  162.1369  127.0403 C   0  0  0  0  0  0  0  0  0  0  0  0
  146.3928  161.5113  126.1088 C   0  0  0  0  0  0  0  0  0  0  0  0
  147.2599  163.2834  127.6785 N   0  0  0  0  0  0  0  0  0  0  0  0
  148.2073  163.7133  128.4567 C   0  0  0  0  0  0  0  0  0  0  0  0
  148.2088  164.9059  129.1988 C   0  0  0  0  0  0  0  0  0  0  0  0
  2  1  1  1
  2  3  1  0
  3  4  1  0
  4  5  1  0
  5  6  1  0
  6  7  1  1
  6  8  1  0
  8  9  1  0
  9 10  1  1
 10 11  1  0
 11 12  1  0
 12 13  1  0
 13 14  2  0
 13 15  1  0
 15 16  1  0
 16 17  1  1
 16 18  1  0
 18 19  1  0
 18 20  1  0
 18 21  1  0
 21 22  2  0
 21 23  1  0
 23 24  1  6
 24 25  1  0
 25 26  2  0
 23 27  1  0
 27 28  1  1
 11 29  1  6
 29 30  2  0
 30 31  1  0
 31 32  2  0
 32 33  1  0
 33 34  1  0
 34 35  1  0
 34 36  2  0
 36 37  1  0
 37 38  2  0
 27  2  1  0
 38 29  1  0
  9  6  1  0
 37 32  1  0
M  END
$$$$
