
     RDKit          3D

 59 68  0  0  0  0  0  0  0  0999 V2000
  192.2180  166.5419  129.6060 C   0  0  2  0  0  0  0  0  0  0  0  0
  192.9947  166.5195  130.8199 N   0  0  0  0  0  0  0  0  0  0  0  0
  193.6167  167.6652  131.4435 C   0  0  0  0  0  0  0  0  0  0  0  0
  193.0252  165.1653  131.2731 C   0  0  0  0  0  0  0  0  0  0  0  0
  193.8081  164.5471  132.2607 C   0  0  0  0  0  0  0  0  0  0  0  0
  193.6664  163.2155  132.5315 C   0  0  0  0  0  0  0  0  0  0  0  0
  194.4688  162.6449  133.5241 O   0  0  0  0  0  0  0  0  0  0  0  0
  195.2072  163.4376  134.4049 C   0  0  0  0  0  0  0  0  0  0  0  0
  192.7439  162.4813  131.8233 C   0  0  0  0  0  0  0  0  0  0  0  0
  191.9974  163.0863  130.8782 C   0  0  0  0  0  0  0  0  0  0  0  0
  192.1048  164.4522  130.5612 C   0  0  0  0  0  0  0  0  0  0  0  0
  191.4100  165.3225  129.5836 C   0  0  1  0  0  0  0  0  0  0  0  0
  190.0273  165.5936  130.1362 C   0  0  0  0  0  0  0  0  0  0  0  0
  189.2463  164.4645  129.5452 C   0  0  0  0  0  0  0  0  0  0  0  0
  190.0060  163.9024  128.4764 N   0  0  0  0  0  0  0  0  0  0  0  0
  189.1739  163.7552  127.3029 C   0  0  0  0  0  0  0  0  0  0  0  0
  188.9153  165.0775  126.6810 C   0  0  0  0  0  0  0  0  0  0  0  0
  189.9213  165.9235  126.5702 C   0  0  0  0  0  0  0  0  0  0  0  0
  191.2648  165.5233  127.0661 C   0  0  1  0  0  0  0  0  0  0  0  0
  191.8991  164.7793  125.8685 C   0  0  0  0  0  0  0  0  0  0  0  0
  191.0123  165.0357  124.6755 C   0  0  0  0  0  0  0  0  0  0  0  0
  192.0917  166.7735  127.1997 C   0  0  0  0  0  0  0  0  0  0  0  0
  193.0367  166.7689  128.3699 C   0  0  1  0  0  0  0  0  0  0  0  0
  193.6334  168.0605  128.3845 O   0  0  0  0  0  0  0  0  0  0  0  0
  194.7126  168.0084  127.5254 C   0  0  0  0  0  0  0  0  0  0  0  0
  195.2671  169.0005  126.9392 O   0  0  0  0  0  0  0  0  0  0  0  0
  195.1134  166.6400  127.3982 N   0  0  0  0  0  0  0  0  0  0  0  0
  196.2079  166.1234  126.6056 C   0  0  0  0  0  0  0  0  0  0  0  0
  195.7585  165.4012  125.3622 C   0  0  0  0  0  0  0  0  0  0  0  0
  194.4622  166.3232  124.5319 Cl  0  0  0  0  0  0  0  0  0  0  0  0
  194.2038  165.8996  128.2319 C   0  0  0  0  0  0  0  0  0  0  0  0
  194.4950  164.7591  128.6709 O   0  0  0  0  0  0  0  0  0  0  0  0
  191.2013  164.6613  128.2623 C   0  0  1  0  0  0  0  0  0  0  0  0
  192.5579  161.0829  132.1869 C   0  0  1  0  0  0  0  0  0  0  0  0
  192.6762  160.7200  133.6192 C   0  0  0  0  0  0  0  0  0  0  0  0
  191.7921  161.0982  134.6760 C   0  0  1  0  0  0  0  0  0  0  0  0
  190.5695  161.9038  134.5061 C   0  0  0  0  0  0  0  0  0  0  0  0
  189.6261  161.1659  133.7375 N   0  0  0  0  0  0  0  0  0  0  0  0
  189.0069  160.1946  134.5436 C   0  0  0  0  0  0  0  0  0  0  0  0
  190.0815  159.2413  135.0215 C   0  0  2  0  0  0  0  0  0  0  0  0
  190.2360  158.2509  134.0507 O   0  0  0  0  0  0  0  0  0  0  0  0
  189.4889  158.4991  136.2356 C   0  0  0  0  0  0  0  0  0  0  0  0
  189.3313  159.4470  137.4053 C   0  0  0  0  0  0  0  0  0  0  0  0
  191.3406  159.8578  135.4857 C   0  0  0  0  0  0  0  0  0  0  0  0
  188.7894  162.1117  133.0377 C   0  0  0  0  0  0  0  0  0  0  0  0
  189.5508  162.2346  131.6700 C   0  0  0  0  0  0  0  0  0  0  0  0
  190.1291  160.8767  131.3876 C   0  0  0  0  0  0  0  0  0  0  0  0
  191.3466  160.4172  131.6398 C   0  0  0  0  0  0  0  0  0  0  0  0
  191.3577  159.0958  131.2584 N   0  0  0  0  0  0  0  0  0  0  0  0
  190.1705  158.7219  130.7685 C   0  0  0  0  0  0  0  0  0  0  0  0
  189.6918  157.5281  130.2639 C   0  0  0  0  0  0  0  0  0  0  0  0
  188.3889  157.4112  129.8111 C   0  0  0  0  0  0  0  0  0  0  0  0
  187.5816  158.5248  129.8791 C   0  0  0  0  0  0  0  0  0  0  0  0
  188.0756  159.7048  130.3845 C   0  0  0  0  0  0  0  0  0  0  0  0
  189.3842  159.8305  130.8417 C   0  0  0  0  0  0  0  0  0  0  0  0
  193.8336  160.4634  131.5933 C   0  0  0  0  0  0  0  0  0  0  0  0
  193.8573  160.2657  130.3767 O   0  0  0  0  0  0  0  0  0  0  0  0
  194.8975  160.1446  132.3786 O   0  0  0  0  0  0  0  0  0  0  0  0
  196.0622  159.4758  131.9017 C   0  0  0  0  0  0  0  0  0  0  0  0
  1  2  1  1
  2  3  1  0
  2  4  1  0
  4  5  2  0
  5  6  1  0
  6  7  1  0
  7  8  1  0
  6  9  2  0
  9 10  1  0
 10 11  2  0
 11 12  1  0
 12 13  1  1
 13 14  1  0
 14 15  1  0
 15 16  1  0
 16 17  1  0
 17 18  2  0
 18 19  1  0
 19 20  1  6
 20 21  1  0
 19 22  1  0
 23 22  1  6
 23 24  1  0
 24 25  1  0
 25 26  2  0
 25 27  1  0
 27 28  1  0
 28 29  1  0
 29 30  1  0
 27 31  1  0
 31 32  2  0
 19 33  1  0
  9 34  1  0
 34 35  1  0
 36 35  1  6
 36 37  1  0
 37 38  1  0
 38 39  1  0
 39 40  1  0
 40 41  1  6
 40 42  1  0
 42 43  1  0
 40 44  1  0
 38 45  1  0
 45 46  1  0
 46 47  1  0
 47 48  2  0
 48 49  1  0
 49 50  1  0
 50 51  2  0
 51 52  1  0
 52 53  2  0
 53 54  1  0
 54 55  2  0
 34 56  1  6
 56 57  2  0
 56 58  1  0
 58 59  1  0
 12  1  1  0
 33 12  1  0
 48 34  1  0
 55 50  1  0
 23  1  1  0
 31 23  1  0
 44 36  1  0
 55 47  1  0
 11  4  1  0
 33 15  1  1
M  END
$$$$
