
     RDKit          3D

 59 68  0  0  0  0  0  0  0  0999 V2000
  206.1570  134.8976  134.8145 C   0  0  2  0  0  0  0  0  0  0  0  0
  207.5922  134.9952  134.7248 N   0  0  0  0  0  0  0  0  0  0  0  0
  208.3766  136.1728  135.0185 C   0  0  0  0  0  0  0  0  0  0  0  0
  208.0730  133.7204  134.2961 C   0  0  0  0  0  0  0  0  0  0  0  0
  209.3399  133.3257  133.8382 C   0  0  0  0  0  0  0  0  0  0  0  0
  209.5786  132.0305  133.4750 C   0  0  0  0  0  0  0  0  0  0  0  0
  210.8566  131.6856  133.0251 O   0  0  0  0  0  0  0  0  0  0  0  0
  211.9832  132.4134  133.4131 C   0  0  0  0  0  0  0  0  0  0  0  0
  208.5598  131.1106  133.5627 C   0  0  0  0  0  0  0  0  0  0  0  0
  207.3481  131.5014  134.0048 C   0  0  0  0  0  0  0  0  0  0  0  0
  207.0510  132.8210  134.3900 C   0  0  0  0  0  0  0  0  0  0  0  0
  205.8216  133.4758  134.8954 C   0  0  1  0  0  0  0  0  0  0  0  0
  205.6556  133.0525  136.3389 C   0  0  0  0  0  0  0  0  0  0  0  0
  204.8253  131.8183  136.1913 C   0  0  0  0  0  0  0  0  0  0  0  0
  204.2599  131.8101  134.8815 N   0  0  0  0  0  0  0  0  0  0  0  0
  202.8430  131.5310  134.9568 C   0  0  0  0  0  0  0  0  0  0  0  0
  202.1086  132.7112  135.4765 C   0  0  0  0  0  0  0  0  0  0  0  0
  202.4362  133.9033  135.0167 C   0  0  0  0  0  0  0  0  0  0  0  0
  203.5178  134.0186  134.0027 C   0  0  1  0  0  0  0  0  0  0  0  0
  202.7890  133.8175  132.6542 C   0  0  0  0  0  0  0  0  0  0  0  0
  201.3170  133.7079  132.9651 C   0  0  0  0  0  0  0  0  0  0  0  0
  203.9588  135.4571  133.9692 C   0  0  0  0  0  0  0  0  0  0  0  0
  205.4325  135.6477  133.7366 C   0  0  1  0  0  0  0  0  0  0  0  0
  205.6594  137.0478  133.8498 O   0  0  0  0  0  0  0  0  0  0  0  0
  205.4029  137.5928  132.6078 C   0  0  0  0  0  0  0  0  0  0  0  0
  205.0934  138.8086  132.3597 O   0  0  0  0  0  0  0  0  0  0  0  0
  205.5429  136.5563  131.6304 N   0  0  0  0  0  0  0  0  0  0  0  0
  205.3749  136.6811  130.1990 C   0  0  0  0  0  0  0  0  0  0  0  0
  203.9648  136.4222  129.7365 C   0  0  0  0  0  0  0  0  0  0  0  0
  202.8596  137.7017  130.3375 Cl  0  0  0  0  0  0  0  0  0  0  0  0
  205.8943  135.3770  132.3763 C   0  0  0  0  0  0  0  0  0  0  0  0
  206.4732  134.4037  131.8323 O   0  0  0  0  0  0  0  0  0  0  0  0
  204.5882  133.0201  134.1898 C   0  0  1  0  0  0  0  0  0  0  0  0
  208.8631  129.7216  133.2450 C   0  0  1  0  0  0  0  0  0  0  0  0
  208.2740  128.6709  134.1087 C   0  0  0  0  0  0  0  0  0  0  0  0
  206.8913  128.3287  134.2219 C   0  0  1  0  0  0  0  0  0  0  0  0
  205.8008  128.9577  133.4554 C   0  0  0  0  0  0  0  0  0  0  0  0
  205.9530  128.6383  132.0771 N   0  0  0  0  0  0  0  0  0  0  0  0
  205.5121  127.3248  131.8385 C   0  0  0  0  0  0  0  0  0  0  0  0
  206.3915  126.3918  132.6434 C   0  0  2  0  0  0  0  0  0  0  0  0
  207.5143  126.0913  131.8713 O   0  0  0  0  0  0  0  0  0  0  0  0
  205.6258  125.0576  132.7421 C   0  0  0  0  0  0  0  0  0  0  0  0
  204.4002  125.2184  133.6160 C   0  0  0  0  0  0  0  0  0  0  0  0
  206.6841  126.8061  134.0303 C   0  0  0  0  0  0  0  0  0  0  0  0
  205.3661  129.7096  131.3074 C   0  0  0  0  0  0  0  0  0  0  0  0
  206.6181  130.6237  131.0582 C   0  0  0  0  0  0  0  0  0  0  0  0
  207.7926  129.6975  130.9140 C   0  0  0  0  0  0  0  0  0  0  0  0
  208.6734  129.3152  131.8277 C   0  0  0  0  0  0  0  0  0  0  0  0
  209.5080  128.4081  131.2178 N   0  0  0  0  0  0  0  0  0  0  0  0
  209.1675  128.2192  129.9380 C   0  0  0  0  0  0  0  0  0  0  0  0
  209.6867  127.4292  128.9304 C   0  0  0  0  0  0  0  0  0  0  0  0
  209.1293  127.4237  127.6633 C   0  0  0  0  0  0  0  0  0  0  0  0
  208.0379  128.2324  127.4369 C   0  0  0  0  0  0  0  0  0  0  0  0
  207.5349  129.0121  128.4522 C   0  0  0  0  0  0  0  0  0  0  0  0
  208.0894  129.0233  129.7287 C   0  0  0  0  0  0  0  0  0  0  0  0
  210.3492  129.6597  133.6340 C   0  0  0  0  0  0  0  0  0  0  0  0
  211.1652  129.4541  132.7330 O   0  0  0  0  0  0  0  0  0  0  0  0
  210.7512  129.8250  134.9230 O   0  0  0  0  0  0  0  0  0  0  0  0
  211.9081  130.5655  135.3034 C   0  0  0  0  0  0  0  0  0  0  0  0
  1  2  1  6
  2  3  1  0
  2  4  1  0
  4  5  2  0
  5  6  1  0
  6  7  1  0
  7  8  1  0
  6  9  2  0
  9 10  1  0
 10 11  2  0
 11 12  1  0
 12 13  1  1
 13 14  1  0
 14 15  1  0
 15 16  1  0
 16 17  1  0
 17 18  2  0
 18 19  1  0
 19 20  1  6
 20 21  1  0
 19 22  1  0
 23 22  1  6
 23 24  1  0
 24 25  1  0
 25 26  2  0
 25 27  1  0
 27 28  1  0
 28 29  1  0
 29 30  1  0
 27 31  1  0
 31 32  2  0
 19 33  1  0
  9 34  1  0
 34 35  1  0
 36 35  1  6
 36 37  1  0
 37 38  1  0
 38 39  1  0
 39 40  1  0
 40 41  1  6
 40 42  1  0
 42 43  1  0
 40 44  1  0
 38 45  1  0
 45 46  1  0
 46 47  1  0
 47 48  2  0
 48 49  1  0
 49 50  1  0
 50 51  2  0
 51 52  1  0
 52 53  2  0
 53 54  1  0
 54 55  2  0
 34 56  1  1
 56 57  2  0
 56 58  1  0
 58 59  1  0
 12  1  1  0
 33 12  1  0
 48 34  1  0
 55 50  1  0
 23  1  1  0
 31 23  1  0
 44 36  1  0
 55 47  1  0
 11  4  1  0
 33 15  1  1
M  END
$$$$
