
     RDKit          3D

 59 68  0  0  0  0  0  0  0  0999 V2000
  193.0080  161.1266  121.4011 C   0  0  2  0  0  0  0  0  0  0  0  0
  192.6942  161.3929  122.7824 N   0  0  0  0  0  0  0  0  0  0  0  0
  193.6209  161.3105  123.8881 C   0  0  0  0  0  0  0  0  0  0  0  0
  191.3115  161.7471  122.8372 C   0  0  0  0  0  0  0  0  0  0  0  0
  190.4434  161.8831  123.9319 C   0  0  0  0  0  0  0  0  0  0  0  0
  189.1368  162.2368  123.7468 C   0  0  0  0  0  0  0  0  0  0  0  0
  188.3109  162.3598  124.8681 O   0  0  0  0  0  0  0  0  0  0  0  0
  188.7021  161.8679  126.1148 C   0  0  0  0  0  0  0  0  0  0  0  0
  188.6766  162.4599  122.4700 C   0  0  0  0  0  0  0  0  0  0  0  0
  189.5199  162.3270  121.4271 C   0  0  0  0  0  0  0  0  0  0  0  0
  190.8720  161.9650  121.5638 C   0  0  0  0  0  0  0  0  0  0  0  0
  191.9687  161.7593  120.5888 C   0  0  1  0  0  0  0  0  0  0  0  0
  192.4167  163.1303  120.1302 C   0  0  0  0  0  0  0  0  0  0  0  0
  191.5310  163.3499  118.9463 C   0  0  0  0  0  0  0  0  0  0  0  0
  190.9768  162.0934  118.5595 N   0  0  0  0  0  0  0  0  0  0  0  0
  191.1304  161.9035  117.1341 C   0  0  0  0  0  0  0  0  0  0  0  0
  192.5444  161.6015  116.8003 C   0  0  0  0  0  0  0  0  0  0  0  0
  193.2000  160.7521  117.5675 C   0  0  0  0  0  0  0  0  0  0  0  0
  192.5032  160.1331  118.7262 C   0  0  1  0  0  0  0  0  0  0  0  0
  191.8104  158.8887  118.1248 C   0  0  0  0  0  0  0  0  0  0  0  0
  192.3326  158.7351  116.7179 C   0  0  0  0  0  0  0  0  0  0  0  0
  193.5554  159.5613  119.6377 C   0  0  0  0  0  0  0  0  0  0  0  0
  193.2336  159.6742  121.1025 C   0  0  1  0  0  0  0  0  0  0  0  0
  194.3828  159.1865  121.7851 O   0  0  0  0  0  0  0  0  0  0  0  0
  194.2417  157.8160  121.8699 C   0  0  0  0  0  0  0  0  0  0  0  0
  195.1812  156.9628  122.0283 O   0  0  0  0  0  0  0  0  0  0  0  0
  192.8497  157.5044  121.7493 N   0  0  0  0  0  0  0  0  0  0  0  0
  192.2446  156.1911  121.7921 C   0  0  0  0  0  0  0  0  0  0  0  0
  191.9612  155.6173  120.4283 C   0  0  0  0  0  0  0  0  0  0  0  0
  193.2598  156.0653  119.2740 Cl  0  0  0  0  0  0  0  0  0  0  0  0
  192.1900  158.7730  121.5881 C   0  0  0  0  0  0  0  0  0  0  0  0
  190.9700  158.9173  121.8511 O   0  0  0  0  0  0  0  0  0  0  0  0
  191.5256  161.0398  119.3588 C   0  0  1  0  0  0  0  0  0  0  0  0
  187.3014  162.9126  122.3078 C   0  0  1  0  0  0  0  0  0  0  0  0
  186.3975  162.8089  123.4780 C   0  0  0  0  0  0  0  0  0  0  0  0
  186.4833  163.5497  124.6967 C   0  0  1  0  0  0  0  0  0  0  0  0
  187.4897  164.5874  124.9846 C   0  0  0  0  0  0  0  0  0  0  0  0
  187.2820  165.6946  124.1151 N   0  0  0  0  0  0  0  0  0  0  0  0
  186.1970  166.4640  124.5705 C   0  0  0  0  0  0  0  0  0  0  0  0
  184.9631  165.5879  124.5289 C   0  0  2  0  0  0  0  0  0  0  0  0
  184.4155  165.6822  123.2489 O   0  0  0  0  0  0  0  0  0  0  0  0
  183.9229  166.2666  125.4419 C   0  0  0  0  0  0  0  0  0  0  0  0
  184.3501  166.1659  126.8907 C   0  0  0  0  0  0  0  0  0  0  0  0
  185.1242  164.2101  125.0356 C   0  0  0  0  0  0  0  0  0  0  0  0
  188.5540  166.3493  123.9212 C   0  0  0  0  0  0  0  0  0  0  0  0
  189.0637  165.6393  122.6168 C   0  0  0  0  0  0  0  0  0  0  0  0
  187.8435  165.3645  121.7839 C   0  0  0  0  0  0  0  0  0  0  0  0
  187.1196  164.2572  121.7008 C   0  0  0  0  0  0  0  0  0  0  0  0
  186.0687  164.5339  120.8578 N   0  0  0  0  0  0  0  0  0  0  0  0
  186.1247  165.7928  120.4090 C   0  0  0  0  0  0  0  0  0  0  0  0
  185.3216  166.5275  119.5580 C   0  0  0  0  0  0  0  0  0  0  0  0
  185.6160  167.8451  119.2525 C   0  0  0  0  0  0  0  0  0  0  0  0
  186.7375  168.4032  119.8245 C   0  0  0  0  0  0  0  0  0  0  0  0
  187.5251  167.6563  120.6693 C   0  0  0  0  0  0  0  0  0  0  0  0
  187.2360  166.3311  120.9814 C   0  0  0  0  0  0  0  0  0  0  0  0
  186.7502  161.8180  121.3795 C   0  0  0  0  0  0  0  0  0  0  0  0
  186.7912  162.0278  120.1654 O   0  0  0  0  0  0  0  0  0  0  0  0
  186.2358  160.6609  121.8765 O   0  0  0  0  0  0  0  0  0  0  0  0
  185.4496  159.7506  121.1122 C   0  0  0  0  0  0  0  0  0  0  0  0
  1  2  1  1
  2  3  1  0
  2  4  1  0
  4  5  2  0
  5  6  1  0
  6  7  1  0
  7  8  1  0
  6  9  2  0
  9 10  1  0
 10 11  2  0
 11 12  1  0
 12 13  1  6
 13 14  1  0
 14 15  1  0
 15 16  1  0
 16 17  1  0
 17 18  2  0
 18 19  1  0
 19 20  1  6
 20 21  1  0
 19 22  1  0
 23 22  1  6
 23 24  1  0
 24 25  1  0
 25 26  2  0
 25 27  1  0
 27 28  1  0
 28 29  1  0
 29 30  1  0
 27 31  1  0
 31 32  2  0
 19 33  1  0
  9 34  1  0
 34 35  1  0
 36 35  1  6
 36 37  1  0
 37 38  1  0
 38 39  1  0
 39 40  1  0
 40 41  1  6
 40 42  1  0
 42 43  1  0
 40 44  1  0
 38 45  1  0
 45 46  1  0
 46 47  1  0
 47 48  2  0
 48 49  1  0
 49 50  1  0
 50 51  2  0
 51 52  1  0
 52 53  2  0
 53 54  1  0
 54 55  2  0
 34 56  1  6
 56 57  2  0
 56 58  1  0
 58 59  1  0
 12  1  1  0
 33 12  1  0
 48 34  1  0
 55 50  1  0
 23  1  1  0
 31 23  1  0
 44 36  1  0
 55 47  1  0
 11  4  1  0
 33 15  1  6
M  END
$$$$
