
     RDKit          3D

 59 68  0  0  0  0  0  0  0  0999 V2000
  163.5850  147.3965  125.3457 C   0  0  2  0  0  0  0  0  0  0  0  0
  164.3169  146.1664  125.1760 N   0  0  0  0  0  0  0  0  0  0  0  0
  163.7853  144.9379  124.6316 C   0  0  0  0  0  0  0  0  0  0  0  0
  165.6456  146.4012  125.6446 C   0  0  0  0  0  0  0  0  0  0  0  0
  166.6930  145.5068  125.9156 C   0  0  0  0  0  0  0  0  0  0  0  0
  167.9008  145.9615  126.3639 C   0  0  0  0  0  0  0  0  0  0  0  0
  168.9133  145.0321  126.6199 O   0  0  0  0  0  0  0  0  0  0  0  0
  168.7327  143.6723  126.3596 C   0  0  0  0  0  0  0  0  0  0  0  0
  168.0826  147.3124  126.5485 C   0  0  0  0  0  0  0  0  0  0  0  0
  167.0697  148.1612  126.2840 C   0  0  0  0  0  0  0  0  0  0  0  0
  165.8085  147.7446  125.8217 C   0  0  0  0  0  0  0  0  0  0  0  0
  164.5671  148.4735  125.4710 C   0  0  1  0  0  0  0  0  0  0  0  0
  164.8043  149.1322  124.1291 C   0  0  0  0  0  0  0  0  0  0  0  0
  165.3548  150.4585  124.5442 C   0  0  0  0  0  0  0  0  0  0  0  0
  165.0584  150.6565  125.9257 N   0  0  0  0  0  0  0  0  0  0  0  0
  164.4867  151.9698  126.1249 C   0  0  0  0  0  0  0  0  0  0  0  0
  163.0916  152.0104  125.6206 C   0  0  0  0  0  0  0  0  0  0  0  0
  162.2993  150.9912  125.8916 C   0  0  0  0  0  0  0  0  0  0  0  0
  162.8283  149.8513  126.6866 C   0  0  1  0  0  0  0  0  0  0  0  0
  162.5993  150.2806  128.1540 C   0  0  0  0  0  0  0  0  0  0  0  0
  161.6990  151.4905  128.1198 C   0  0  0  0  0  0  0  0  0  0  0  0
  161.8916  148.6891  126.4949 C   0  0  0  0  0  0  0  0  0  0  0  0
  162.5703  147.3477  126.4491 C   0  0  1  0  0  0  0  0  0  0  0  0
  161.5424  146.4090  126.1545 O   0  0  0  0  0  0  0  0  0  0  0  0
  160.9635  146.0639  127.3592 C   0  0  0  0  0  0  0  0  0  0  0  0
  159.7889  145.5880  127.5302 O   0  0  0  0  0  0  0  0  0  0  0  0
  161.9099  146.3312  128.3995 N   0  0  0  0  0  0  0  0  0  0  0  0
  161.7300  146.1104  129.8179 C   0  0  0  0  0  0  0  0  0  0  0  0
  161.6637  147.3845  130.6189 C   0  0  0  0  0  0  0  0  0  0  0  0
  160.5764  148.5714  129.8260 Cl  0  0  0  0  0  0  0  0  0  0  0  0
  163.0718  146.8529  127.7300 C   0  0  0  0  0  0  0  0  0  0  0  0
  164.2086  146.8179  128.2635 O   0  0  0  0  0  0  0  0  0  0  0  0
  164.2546  149.5804  126.4218 C   0  0  1  0  0  0  0  0  0  0  0  0
  169.4037  147.7761  126.9508 C   0  0  1  0  0  0  0  0  0  0  0  0
  170.0034  147.1809  128.1686 C   0  0  0  0  0  0  0  0  0  0  0  0
  170.4407  145.8312  128.3380 C   0  0  1  0  0  0  0  0  0  0  0  0
  170.3961  144.7922  127.2934 C   0  0  0  0  0  0  0  0  0  0  0  0
  171.2943  145.1425  126.2466 N   0  0  0  0  0  0  0  0  0  0  0  0
  172.6151  144.8542  126.6325 C   0  0  0  0  0  0  0  0  0  0  0  0
  172.9369  145.7069  127.8413 C   0  0  2  0  0  0  0  0  0  0  0  0
  173.4035  146.9393  127.3823 O   0  0  0  0  0  0  0  0  0  0  0  0
  174.1641  145.0576  128.5111 C   0  0  0  0  0  0  0  0  0  0  0  0
  174.0066  143.5525  128.5500 C   0  0  0  0  0  0  0  0  0  0  0  0
  171.8905  145.7867  128.8803 C   0  0  0  0  0  0  0  0  0  0  0  0
  170.7948  144.5620  125.0227 C   0  0  0  0  0  0  0  0  0  0  0  0
  169.9382  145.7482  124.4532 C   0  0  0  0  0  0  0  0  0  0  0  0
  170.6538  147.0099  124.8460 C   0  0  0  0  0  0  0  0  0  0  0  0
  170.4430  147.8011  125.8883 C   0  0  0  0  0  0  0  0  0  0  0  0
  171.4050  148.7829  125.8408 N   0  0  0  0  0  0  0  0  0  0  0  0
  172.2109  148.6223  124.7853 C   0  0  0  0  0  0  0  0  0  0  0  0
  173.2983  149.3313  124.3121 C   0  0  0  0  0  0  0  0  0  0  0  0
  173.9678  148.9383  123.1661 C   0  0  0  0  0  0  0  0  0  0  0  0
  173.5155  147.8154  122.5097 C   0  0  0  0  0  0  0  0  0  0  0  0
  172.4314  147.1223  122.9956 C   0  0  0  0  0  0  0  0  0  0  0  0
  171.7529  147.5108  124.1470 C   0  0  0  0  0  0  0  0  0  0  0  0
  169.0726  149.2019  127.4211 C   0  0  0  0  0  0  0  0  0  0  0  0
  169.2343  149.4589  128.6160 O   0  0  0  0  0  0  0  0  0  0  0  0
  168.6182  150.1461  126.5538 O   0  0  0  0  0  0  0  0  0  0  0  0
  167.5292  151.0216  126.8347 C   0  0  0  0  0  0  0  0  0  0  0  0
  1  2  1  1
  2  3  1  0
  2  4  1  0
  4  5  2  0
  5  6  1  0
  6  7  1  0
  7  8  1  0
  6  9  2  0
  9 10  1  0
 10 11  2  0
 11 12  1  0
 12 13  1  6
 13 14  1  0
 14 15  1  0
 15 16  1  0
 16 17  1  0
 17 18  2  0
 18 19  1  0
 19 20  1  1
 20 21  1  0
 19 22  1  0
 23 22  1  1
 23 24  1  0
 24 25  1  0
 25 26  2  0
 25 27  1  0
 27 28  1  0
 28 29  1  0
 29 30  1  0
 27 31  1  0
 31 32  2  0
 19 33  1  0
  9 34  1  0
 34 35  1  0
 36 35  1  6
 36 37  1  0
 37 38  1  0
 38 39  1  0
 39 40  1  0
 40 41  1  6
 40 42  1  0
 42 43  1  0
 40 44  1  0
 38 45  1  0
 45 46  1  0
 46 47  1  0
 47 48  2  0
 48 49  1  0
 49 50  1  0
 50 51  2  0
 51 52  1  0
 52 53  2  0
 53 54  1  0
 54 55  2  0
 34 56  1  1
 56 57  2  0
 56 58  1  0
 58 59  1  0
 12  1  1  0
 33 12  1  0
 48 34  1  0
 55 50  1  0
 23  1  1  0
 31 23  1  0
 44 36  1  0
 55 47  1  0
 11  4  1  0
 33 15  1  6
M  END
$$$$
