
     RDKit          3D

 59 68  0  0  0  0  0  0  0  0999 V2000
  205.3548  133.8003  135.2068 C   0  0  2  0  0  0  0  0  0  0  0  0
  206.6690  133.2210  135.3286 N   0  0  0  0  0  0  0  0  0  0  0  0
  207.7664  133.7739  136.0889 C   0  0  0  0  0  0  0  0  0  0  0  0
  206.6682  132.0155  134.5624 C   0  0  0  0  0  0  0  0  0  0  0  0
  207.7264  131.1877  134.1558 C   0  0  0  0  0  0  0  0  0  0  0  0
  207.4891  130.0646  133.4149 C   0  0  0  0  0  0  0  0  0  0  0  0
  208.5757  129.2717  133.0338 O   0  0  0  0  0  0  0  0  0  0  0  0
  209.8625  129.5258  133.5123 C   0  0  0  0  0  0  0  0  0  0  0  0
  206.1956  129.7503  133.0687 C   0  0  0  0  0  0  0  0  0  0  0  0
  205.1880  130.5524  133.4657 C   0  0  0  0  0  0  0  0  0  0  0  0
  205.3788  131.7186  134.2282 C   0  0  0  0  0  0  0  0  0  0  0  0
  204.4493  132.7375  134.7701 C   0  0  1  0  0  0  0  0  0  0  0  0
  203.7527  132.1135  135.9600 C   0  0  0  0  0  0  0  0  0  0  0  0
  202.5537  131.4996  135.3120 C   0  0  0  0  0  0  0  0  0  0  0  0
  202.3986  132.0748  134.0156 N   0  0  0  0  0  0  0  0  0  0  0  0
  201.0286  132.4953  133.8224 C   0  0  0  0  0  0  0  0  0  0  0  0
  200.7454  133.7196  134.6117 C   0  0  0  0  0  0  0  0  0  0  0  0
  201.6471  134.6824  134.6169 C   0  0  0  0  0  0  0  0  0  0  0  0
  202.9011  134.5071  133.8370 C   0  0  1  0  0  0  0  0  0  0  0  0
  202.5334  135.0060  132.4207 C   0  0  0  0  0  0  0  0  0  0  0  0
  201.4021  135.9904  132.5841 C   0  0  0  0  0  0  0  0  0  0  0  0
  203.8933  135.5224  134.3364 C   0  0  0  0  0  0  0  0  0  0  0  0
  205.3168  135.0376  134.3599 C   0  0  1  0  0  0  0  0  0  0  0  0
  206.0684  136.0874  134.9581 O   0  0  0  0  0  0  0  0  0  0  0  0
  206.3952  136.9674  133.9461 C   0  0  0  0  0  0  0  0  0  0  0  0
  206.6968  138.2029  134.0801 O   0  0  0  0  0  0  0  0  0  0  0  0
  206.3396  136.2570  132.7045 N   0  0  0  0  0  0  0  0  0  0  0  0
  206.6178  136.7845  131.3864 C   0  0  0  0  0  0  0  0  0  0  0  0
  207.9586  137.4636  131.2835 C   0  0  0  0  0  0  0  0  0  0  0  0
  208.0331  138.8804  132.3821 Cl  0  0  0  0  0  0  0  0  0  0  0  0
  205.9602  134.9135  133.0532 C   0  0  0  0  0  0  0  0  0  0  0  0
  206.2006  133.9441  132.2911 O   0  0  0  0  0  0  0  0  0  0  0  0
  203.3687  133.1077  133.8098 C   0  0  1  0  0  0  0  0  0  0  0  0
  205.9638  128.5062  132.3469 C   0  0  1  0  0  0  0  0  0  0  0  0
  206.9816  127.4358  132.4708 C   0  0  0  0  0  0  0  0  0  0  0  0
  207.2951  126.6814  133.6431 C   0  0  1  0  0  0  0  0  0  0  0  0
  206.6187  126.8246  134.9448 C   0  0  0  0  0  0  0  0  0  0  0  0
  205.2650  126.4050  134.8173 N   0  0  0  0  0  0  0  0  0  0  0  0
  205.1974  125.0007  134.8120 C   0  0  0  0  0  0  0  0  0  0  0  0
  205.9643  124.5086  133.6030 C   0  0  2  0  0  0  0  0  0  0  0  0
  205.0874  124.4953  132.5176 O   0  0  0  0  0  0  0  0  0  0  0  0
  206.2723  123.0212  133.8654 C   0  0  0  0  0  0  0  0  0  0  0  0
  206.9690  122.8563  135.1992 C   0  0  0  0  0  0  0  0  0  0  0  0
  207.2630  125.1622  133.3442 C   0  0  0  0  0  0  0  0  0  0  0  0
  204.4846  127.1257  135.7951 C   0  0  0  0  0  0  0  0  0  0  0  0
  204.0035  128.3579  134.9492 C   0  0  0  0  0  0  0  0  0  0  0  0
  203.7949  127.8512  133.5499 C   0  0  0  0  0  0  0  0  0  0  0  0
  204.6216  127.8897  132.5145 C   0  0  0  0  0  0  0  0  0  0  0  0
  203.9932  127.2337  131.4818 N   0  0  0  0  0  0  0  0  0  0  0  0
  202.7869  126.7893  131.8515 C   0  0  0  0  0  0  0  0  0  0  0  0
  201.7945  126.0925  131.1893 C   0  0  0  0  0  0  0  0  0  0  0  0
  200.6119  125.7515  131.8227 C   0  0  0  0  0  0  0  0  0  0  0  0
  200.4540  126.1293  133.1375 C   0  0  0  0  0  0  0  0  0  0  0  0
  201.4529  126.8227  133.7805 C   0  0  0  0  0  0  0  0  0  0  0  0
  202.6446  127.1693  133.1508 C   0  0  0  0  0  0  0  0  0  0  0  0
  206.1688  128.9767  130.8977 C   0  0  0  0  0  0  0  0  0  0  0  0
  205.1624  129.1405  130.2048 O   0  0  0  0  0  0  0  0  0  0  0  0
  207.4127  129.2043  130.3964 O   0  0  0  0  0  0  0  0  0  0  0  0
  207.6664  129.5733  129.0433 C   0  0  0  0  0  0  0  0  0  0  0  0
  1  2  1  6
  2  3  1  0
  2  4  1  0
  4  5  2  0
  5  6  1  0
  6  7  1  0
  7  8  1  0
  6  9  2  0
  9 10  1  0
 10 11  2  0
 11 12  1  0
 12 13  1  1
 13 14  1  0
 14 15  1  0
 15 16  1  0
 16 17  1  0
 17 18  2  0
 18 19  1  0
 19 20  1  6
 20 21  1  0
 19 22  1  0
 23 22  1  6
 23 24  1  0
 24 25  1  0
 25 26  2  0
 25 27  1  0
 27 28  1  0
 28 29  1  0
 29 30  1  0
 27 31  1  0
 31 32  2  0
 19 33  1  0
  9 34  1  0
 34 35  1  0
 36 35  1  6
 36 37  1  0
 37 38  1  0
 38 39  1  0
 39 40  1  0
 40 41  1  6
 40 42  1  0
 42 43  1  0
 40 44  1  0
 38 45  1  0
 45 46  1  0
 46 47  1  0
 47 48  2  0
 48 49  1  0
 49 50  1  0
 50 51  2  0
 51 52  1  0
 52 53  2  0
 53 54  1  0
 54 55  2  0
 34 56  1  6
 56 57  2  0
 56 58  1  0
 58 59  1  0
 12  1  1  0
 33 12  1  0
 48 34  1  0
 55 50  1  0
 23  1  1  0
 31 23  1  0
 44 36  1  0
 55 47  1  0
 11  4  1  0
 33 15  1  1
M  END
$$$$
