
     RDKit          3D

 59 68  0  0  0  0  0  0  0  0999 V2000
  126.7111  141.4754  135.9244 C   0  0  2  0  0  0  0  0  0  0  0  0
  125.5428  141.9096  135.2006 N   0  0  0  0  0  0  0  0  0  0  0  0
  124.2895  141.1952  135.1171 C   0  0  0  0  0  0  0  0  0  0  0  0
  125.8665  143.1620  134.5950 C   0  0  0  0  0  0  0  0  0  0  0  0
  125.1922  143.9073  133.6149 C   0  0  0  0  0  0  0  0  0  0  0  0
  125.6943  145.0998  133.1764 C   0  0  0  0  0  0  0  0  0  0  0  0
  124.9866  145.8057  132.1989 O   0  0  0  0  0  0  0  0  0  0  0  0
  123.6821  145.4511  131.8496 C   0  0  0  0  0  0  0  0  0  0  0  0
  126.8742  145.5668  133.7073 C   0  0  0  0  0  0  0  0  0  0  0  0
  127.5118  144.8427  134.6483 C   0  0  0  0  0  0  0  0  0  0  0  0
  127.0378  143.6104  135.1328 C   0  0  0  0  0  0  0  0  0  0  0  0
  127.5523  142.6528  136.1397 C   0  0  1  0  0  0  0  0  0  0  0  0
  127.2821  143.2545  137.5019 C   0  0  0  0  0  0  0  0  0  0  0  0
  128.5374  144.0313  137.7362 C   0  0  0  0  0  0  0  0  0  0  0  0
  129.5291  143.5712  136.8195 N   0  0  0  0  0  0  0  0  0  0  0  0
  130.7653  143.3055  137.5214 C   0  0  0  0  0  0  0  0  0  0  0  0
  130.6503  142.0611  138.3217 C   0  0  0  0  0  0  0  0  0  0  0  0
  130.0659  141.0151  137.7701 C   0  0  0  0  0  0  0  0  0  0  0  0
  129.5508  141.1205  136.3791 C   0  0  1  0  0  0  0  0  0  0  0  0
  130.7724  140.7663  135.5001 C   0  0  0  0  0  0  0  0  0  0  0  0
  131.8895  141.6932  135.9106 C   0  0  0  0  0  0  0  0  0  0  0  0
  128.5977  139.9770  136.1588 C   0  0  0  0  0  0  0  0  0  0  0  0
  127.4167  140.3136  135.2904 C   0  0  1  0  0  0  0  0  0  0  0  0
  126.5939  139.1528  135.2972 O   0  0  0  0  0  0  0  0  0  0  0  0
  127.0735  138.3211  134.3054 C   0  0  0  0  0  0  0  0  0  0  0  0
  126.9098  137.0551  134.2290 O   0  0  0  0  0  0  0  0  0  0  0  0
  127.7945  139.1227  133.3637 N   0  0  0  0  0  0  0  0  0  0  0  0
  128.4571  138.6681  132.1606 C   0  0  0  0  0  0  0  0  0  0  0  0
  129.5638  137.6803  132.4229 C   0  0  0  0  0  0  0  0  0  0  0  0
  130.7840  138.3820  133.5357 Cl  0  0  0  0  0  0  0  0  0  0  0  0
  127.7075  140.4682  133.8662 C   0  0  0  0  0  0  0  0  0  0  0  0
  127.8706  141.4619  133.1151 O   0  0  0  0  0  0  0  0  0  0  0  0
  129.0305  142.4642  136.0605 C   0  0  1  0  0  0  0  0  0  0  0  0
  127.3452  146.8773  133.2798 C   0  0  1  0  0  0  0  0  0  0  0  0
  126.3634  147.7931  132.6517 C   0  0  0  0  0  0  0  0  0  0  0  0
  125.2447  148.4169  133.2848 C   0  0  1  0  0  0  0  0  0  0  0  0
  124.8935  148.2744  134.7092 C   0  0  0  0  0  0  0  0  0  0  0  0
  125.9089  148.8766  135.5039 N   0  0  0  0  0  0  0  0  0  0  0  0
  125.7595  150.2746  135.4927 C   0  0  0  0  0  0  0  0  0  0  0  0
  125.9323  150.7436  134.0638 C   0  0  2  0  0  0  0  0  0  0  0  0
  127.2951  150.9474  133.8432 O   0  0  0  0  0  0  0  0  0  0  0  0
  125.3178  152.1557  133.9975 C   0  0  0  0  0  0  0  0  0  0  0  0
  123.9335  152.0982  133.3873 C   0  0  0  0  0  0  0  0  0  0  0  0
  125.2482  149.9440  133.0277 C   0  0  0  0  0  0  0  0  0  0  0  0
  125.9328  148.1992  136.7785 C   0  0  0  0  0  0  0  0  0  0  0  0
  127.0258  147.1027  136.5177 C   0  0  0  0  0  0  0  0  0  0  0  0
  128.0374  147.7278  135.5988 C   0  0  0  0  0  0  0  0  0  0  0  0
  128.1272  147.6524  134.2785 C   0  0  0  0  0  0  0  0  0  0  0  0
  129.1803  148.4552  133.9071 N   0  0  0  0  0  0  0  0  0  0  0  0
  129.7531  149.0281  134.9715 C   0  0  0  0  0  0  0  0  0  0  0  0
  130.8201  149.8938  135.1170 C   0  0  0  0  0  0  0  0  0  0  0  0
  131.2148  150.3431  136.3654 C   0  0  0  0  0  0  0  0  0  0  0  0
  130.5093  149.8995  137.4617 C   0  0  0  0  0  0  0  0  0  0  0  0
  129.4499  149.0377  137.2974 C   0  0  0  0  0  0  0  0  0  0  0  0
  129.0468  148.5814  136.0459 C   0  0  0  0  0  0  0  0  0  0  0  0
  128.2280  146.4852  132.0838 C   0  0  0  0  0  0  0  0  0  0  0  0
  129.4453  146.6426  132.1991 O   0  0  0  0  0  0  0  0  0  0  0  0
  127.6888  145.9834  130.9402 O   0  0  0  0  0  0  0  0  0  0  0  0
  128.4506  145.3456  129.9184 C   0  0  0  0  0  0  0  0  0  0  0  0
  1  2  1  6
  2  3  1  0
  2  4  1  0
  4  5  2  0
  5  6  1  0
  6  7  1  0
  7  8  1  0
  6  9  2  0
  9 10  1  0
 10 11  2  0
 11 12  1  0
 12 13  1  1
 13 14  1  0
 14 15  1  0
 15 16  1  0
 16 17  1  0
 17 18  2  0
 18 19  1  0
 19 20  1  6
 20 21  1  0
 19 22  1  0
 23 22  1  1
 23 24  1  0
 24 25  1  0
 25 26  2  0
 25 27  1  0
 27 28  1  0
 28 29  1  0
 29 30  1  0
 27 31  1  0
 31 32  2  0
 19 33  1  0
  9 34  1  0
 34 35  1  0
 36 35  1  1
 36 37  1  0
 37 38  1  0
 38 39  1  0
 39 40  1  0
 40 41  1  6
 40 42  1  0
 42 43  1  0
 40 44  1  0
 38 45  1  0
 45 46  1  0
 46 47  1  0
 47 48  2  0
 48 49  1  0
 49 50  1  0
 50 51  2  0
 51 52  1  0
 52 53  2  0
 53 54  1  0
 54 55  2  0
 34 56  1  6
 56 57  2  0
 56 58  1  0
 58 59  1  0
 12  1  1  0
 33 12  1  0
 48 34  1  0
 55 50  1  0
 23  1  1  0
 31 23  1  0
 44 36  1  0
 55 47  1  0
 11  4  1  0
 33 15  1  1
M  END
$$$$
