
     RDKit          3D

 59 68  0  0  0  0  0  0  0  0999 V2000
  190.6362  161.1418  134.7285 C   0  0  2  0  0  0  0  0  0  0  0  0
  190.4665  159.7572  135.0909 N   0  0  0  0  0  0  0  0  0  0  0  0
  191.4847  158.9043  135.6602 C   0  0  0  0  0  0  0  0  0  0  0  0
  189.1175  159.4050  134.7804 C   0  0  0  0  0  0  0  0  0  0  0  0
  188.4884  158.1516  134.7208 C   0  0  0  0  0  0  0  0  0  0  0  0
  187.1650  158.0495  134.3969 C   0  0  0  0  0  0  0  0  0  0  0  0
  186.5829  156.7792  134.3504 O   0  0  0  0  0  0  0  0  0  0  0  0
  187.2364  155.6621  134.8743 C   0  0  0  0  0  0  0  0  0  0  0  0
  186.4500  159.1933  134.1279 C   0  0  0  0  0  0  0  0  0  0  0  0
  187.0649  160.3910  134.1893 C   0  0  0  0  0  0  0  0  0  0  0  0
  188.4233  160.5501  134.5171 C   0  0  0  0  0  0  0  0  0  0  0  0
  189.3021  161.7363  134.6440 C   0  0  1  0  0  0  0  0  0  0  0  0
  188.9424  162.4169  135.9471 C   0  0  0  0  0  0  0  0  0  0  0  0
  187.8796  163.3682  135.5000 C   0  0  0  0  0  0  0  0  0  0  0  0
  187.9523  163.4896  134.0804 N   0  0  0  0  0  0  0  0  0  0  0  0
  187.9401  164.8855  133.7026 C   0  0  0  0  0  0  0  0  0  0  0  0
  189.2443  165.5196  134.0174 C   0  0  0  0  0  0  0  0  0  0  0  0
  190.3474  164.8558  133.7302 C   0  0  0  0  0  0  0  0  0  0  0  0
  190.2436  163.5102  133.1057 C   0  0  1  0  0  0  0  0  0  0  0  0
  190.1560  163.8068  131.5910 C   0  0  0  0  0  0  0  0  0  0  0  0
  189.2603  165.0102  131.4324 C   0  0  0  0  0  0  0  0  0  0  0  0
  191.5755  162.8289  133.2687 C   0  0  0  0  0  0  0  0  0  0  0  0
  191.4875  161.3471  133.5109 C   0  0  1  0  0  0  0  0  0  0  0  0
  192.8237  160.9180  133.7455 O   0  0  0  0  0  0  0  0  0  0  0  0
  193.3844  160.6725  132.5083 C   0  0  0  0  0  0  0  0  0  0  0  0
  194.6317  160.6648  132.2263 O   0  0  0  0  0  0  0  0  0  0  0  0
  192.3226  160.4246  131.5808 N   0  0  0  0  0  0  0  0  0  0  0  0
  192.4506  160.1134  130.1738 C   0  0  0  0  0  0  0  0  0  0  0  0
  192.1468  161.2811  129.2718 C   0  0  0  0  0  0  0  0  0  0  0  0
  193.2868  162.6313  129.5836 Cl  0  0  0  0  0  0  0  0  0  0  0  0
  191.1122  160.5416  132.3501 C   0  0  0  0  0  0  0  0  0  0  0  0
  190.0395  160.0077  131.9726 O   0  0  0  0  0  0  0  0  0  0  0  0
  189.0687  162.7498  133.5738 C   0  0  1  0  0  0  0  0  0  0  0  0
  185.0235  159.0619  133.8633 C   0  0  1  0  0  0  0  0  0  0  0  0
  184.5171  157.7312  133.4512 C   0  0  0  0  0  0  0  0  0  0  0  0
  184.4640  156.5481  134.2505 C   0  0  1  0  0  0  0  0  0  0  0  0
  184.8838  156.4628  135.6608 C   0  0  0  0  0  0  0  0  0  0  0  0
  184.0125  157.2575  136.4572 N   0  0  0  0  0  0  0  0  0  0  0  0
  182.7986  156.5784  136.6623 C   0  0  0  0  0  0  0  0  0  0  0  0
  182.1524  156.3737  135.3087 C   0  0  2  0  0  0  0  0  0  0  0  0
  181.3980  157.5114  135.0195 O   0  0  0  0  0  0  0  0  0  0  0  0
  181.1062  155.2573  135.4961 C   0  0  0  0  0  0  0  0  0  0  0  0
  181.7762  153.9822  135.9619 C   0  0  0  0  0  0  0  0  0  0  0  0
  183.0455  155.9274  134.2205 C   0  0  0  0  0  0  0  0  0  0  0  0
  184.7534  157.7030  137.6135 C   0  0  0  0  0  0  0  0  0  0  0  0
  185.2864  159.0928  137.1139 C   0  0  0  0  0  0  0  0  0  0  0  0
  184.2157  159.6582  136.2239 C   0  0  0  0  0  0  0  0  0  0  0  0
  184.1097  159.6024  134.9038 C   0  0  0  0  0  0  0  0  0  0  0  0
  182.9181  160.2063  134.5766 N   0  0  0  0  0  0  0  0  0  0  0  0
  182.2790  160.6423  135.6678 C   0  0  0  0  0  0  0  0  0  0  0  0
  181.0790  161.2999  135.8587 C   0  0  0  0  0  0  0  0  0  0  0  0
  180.6431  161.6443  137.1265 C   0  0  0  0  0  0  0  0  0  0  0  0
  181.4446  161.3105  138.1955 C   0  0  0  0  0  0  0  0  0  0  0  0
  182.6360  160.6559  137.9861 C   0  0  0  0  0  0  0  0  0  0  0  0
  183.0814  160.3061  136.7147 C   0  0  0  0  0  0  0  0  0  0  0  0
  184.9013  159.8686  132.5603 C   0  0  0  0  0  0  0  0  0  0  0  0
  184.5076  159.2714  131.5561 O   0  0  0  0  0  0  0  0  0  0  0  0
  185.2152  161.1913  132.5142 O   0  0  0  0  0  0  0  0  0  0  0  0
  184.5056  162.1473  131.7307 C   0  0  0  0  0  0  0  0  0  0  0  0
  1  2  1  6
  2  3  1  0
  2  4  1  0
  4  5  2  0
  5  6  1  0
  6  7  1  0
  7  8  1  0
  6  9  2  0
  9 10  1  0
 10 11  2  0
 11 12  1  0
 12 13  1  1
 13 14  1  0
 14 15  1  0
 15 16  1  0
 16 17  1  0
 17 18  2  0
 18 19  1  0
 19 20  1  6
 20 21  1  0
 19 22  1  0
 23 22  1  6
 23 24  1  0
 24 25  1  0
 25 26  2  0
 25 27  1  0
 27 28  1  0
 28 29  1  0
 29 30  1  0
 27 31  1  0
 31 32  2  0
 19 33  1  0
  9 34  1  0
 34 35  1  0
 36 35  1  1
 36 37  1  0
 37 38  1  0
 38 39  1  0
 39 40  1  0
 40 41  1  6
 40 42  1  0
 42 43  1  0
 40 44  1  0
 38 45  1  0
 45 46  1  0
 46 47  1  0
 47 48  2  0
 48 49  1  0
 49 50  1  0
 50 51  2  0
 51 52  1  0
 52 53  2  0
 53 54  1  0
 54 55  2  0
 34 56  1  6
 56 57  2  0
 56 58  1  0
 58 59  1  0
 12  1  1  0
 33 12  1  0
 48 34  1  0
 55 50  1  0
 23  1  1  0
 31 23  1  0
 44 36  1  0
 55 47  1  0
 11  4  1  0
 33 15  1  1
M  END
$$$$
