
     RDKit          3D

 59 68  0  0  0  0  0  0  0  0999 V2000
  148.3945  171.7093  135.2927 C   0  0  2  0  0  0  0  0  0  0  0  0
  148.3051  170.3290  135.6981 N   0  0  0  0  0  0  0  0  0  0  0  0
  148.7933  169.7835  136.9440 C   0  0  0  0  0  0  0  0  0  0  0  0
  147.6504  169.6237  134.6426 C   0  0  0  0  0  0  0  0  0  0  0  0
  147.5054  168.2465  134.4130 C   0  0  0  0  0  0  0  0  0  0  0  0
  146.8276  167.7888  133.3186 C   0  0  0  0  0  0  0  0  0  0  0  0
  146.7096  166.4082  133.1329 O   0  0  0  0  0  0  0  0  0  0  0  0
  146.6213  165.5350  134.2189 C   0  0  0  0  0  0  0  0  0  0  0  0
  146.2850  168.6955  132.4381 C   0  0  0  0  0  0  0  0  0  0  0  0
  146.4301  170.0152  132.6698 C   0  0  0  0  0  0  0  0  0  0  0  0
  147.1182  170.5372  133.7796 C   0  0  0  0  0  0  0  0  0  0  0  0
  147.4043  171.9176  134.2361 C   0  0  1  0  0  0  0  0  0  0  0  0
  146.1191  172.4677  134.8162 C   0  0  0  0  0  0  0  0  0  0  0  0
  145.4958  173.0952  133.6112 C   0  0  0  0  0  0  0  0  0  0  0  0
  146.5001  173.2388  132.6081 N   0  0  0  0  0  0  0  0  0  0  0  0
  146.4712  174.5802  132.0686 C   0  0  0  0  0  0  0  0  0  0  0  0
  147.0350  175.5446  133.0455 C   0  0  0  0  0  0  0  0  0  0  0  0
  148.1345  175.2084  133.6921 C   0  0  0  0  0  0  0  0  0  0  0  0
  148.7630  173.8887  133.4189 C   0  0  1  0  0  0  0  0  0  0  0  0
  149.6860  174.1576  132.2081 C   0  0  0  0  0  0  0  0  0  0  0  0
  150.0315  175.6256  132.2397 C   0  0  0  0  0  0  0  0  0  0  0  0
  149.7152  173.5958  134.5468 C   0  0  0  0  0  0  0  0  0  0  0  0
  149.7850  172.1450  134.9374 C   0  0  1  0  0  0  0  0  0  0  0  0
  150.6400  172.0956  136.0737 O   0  0  0  0  0  0  0  0  0  0  0  0
  151.9323  172.0186  135.5944 C   0  0  0  0  0  0  0  0  0  0  0  0
  152.9967  172.3529  136.2194 O   0  0  0  0  0  0  0  0  0  0  0  0
  151.8817  171.4950  134.2630 N   0  0  0  0  0  0  0  0  0  0  0  0
  153.0028  171.2375  133.3857 C   0  0  0  0  0  0  0  0  0  0  0  0
  153.1437  172.2513  132.2803 C   0  0  0  0  0  0  0  0  0  0  0  0
  154.4035  173.4610  132.6917 Cl  0  0  0  0  0  0  0  0  0  0  0  0
  150.4853  171.2735  133.9956 C   0  0  0  0  0  0  0  0  0  0  0  0
  150.1057  170.4690  133.1085 O   0  0  0  0  0  0  0  0  0  0  0  0
  147.7753  172.8342  133.1185 C   0  0  1  0  0  0  0  0  0  0  0  0
  145.5004  168.1811  131.3236 C   0  0  1  0  0  0  0  0  0  0  0  0
  145.0262  169.1503  130.3073 C   0  0  0  0  0  0  0  0  0  0  0  0
  145.8297  169.8872  129.3837 C   0  0  1  0  0  0  0  0  0  0  0  0
  147.2947  169.7776  129.2651 C   0  0  0  0  0  0  0  0  0  0  0  0
  147.6301  168.4762  128.7970 N   0  0  0  0  0  0  0  0  0  0  0  0
  147.4007  168.3916  127.4125 C   0  0  0  0  0  0  0  0  0  0  0  0
  145.9221  168.6158  127.1773 C   0  0  2  0  0  0  0  0  0  0  0  0
  145.2789  167.3835  127.2987 O   0  0  0  0  0  0  0  0  0  0  0  0
  145.7743  168.9804  125.6869 C   0  0  0  0  0  0  0  0  0  0  0  0
  145.7340  170.4839  125.5152 C   0  0  0  0  0  0  0  0  0  0  0  0
  145.3007  169.7185  127.9381 C   0  0  0  0  0  0  0  0  0  0  0  0
  148.9456  168.1523  129.2957 C   0  0  0  0  0  0  0  0  0  0  0  0
  148.5876  167.3961  130.6242 C   0  0  0  0  0  0  0  0  0  0  0  0
  147.3130  166.6482  130.3516 C   0  0  0  0  0  0  0  0  0  0  0  0
  146.0628  167.0033  130.6123 C   0  0  0  0  0  0  0  0  0  0  0  0
  145.2560  166.0108  130.1067 N   0  0  0  0  0  0  0  0  0  0  0  0
  145.9792  165.0397  129.5381 C   0  0  0  0  0  0  0  0  0  0  0  0
  145.6413  163.8571  128.9086 C   0  0  0  0  0  0  0  0  0  0  0  0
  146.6122  163.0127  128.3984 C   0  0  0  0  0  0  0  0  0  0  0  0
  147.9297  163.3884  128.5378 C   0  0  0  0  0  0  0  0  0  0  0  0
  148.2470  164.5694  129.1674 C   0  0  0  0  0  0  0  0  0  0  0  0
  147.2769  165.4238  129.6831 C   0  0  0  0  0  0  0  0  0  0  0  0
  144.1945  167.8084  132.0443 C   0  0  0  0  0  0  0  0  0  0  0  0
  143.8047  166.6427  131.9491 O   0  0  0  0  0  0  0  0  0  0  0  0
  143.4936  168.7282  132.7605 O   0  0  0  0  0  0  0  0  0  0  0  0
  142.3662  168.4091  133.5720 C   0  0  0  0  0  0  0  0  0  0  0  0
  1  2  1  6
  2  3  1  0
  2  4  1  0
  4  5  2  0
  5  6  1  0
  6  7  1  0
  7  8  1  0
  6  9  2  0
  9 10  1  0
 10 11  2  0
 11 12  1  0
 12 13  1  1
 13 14  1  0
 14 15  1  0
 15 16  1  0
 16 17  1  0
 17 18  2  0
 18 19  1  0
 19 20  1  6
 20 21  1  0
 19 22  1  0
 23 22  1  6
 23 24  1  0
 24 25  1  0
 25 26  2  0
 25 27  1  0
 27 28  1  0
 28 29  1  0
 29 30  1  0
 27 31  1  0
 31 32  2  0
 19 33  1  0
  9 34  1  0
 34 35  1  0
 36 35  1  1
 36 37  1  0
 37 38  1  0
 38 39  1  0
 39 40  1  0
 40 41  1  6
 40 42  1  0
 42 43  1  0
 40 44  1  0
 38 45  1  0
 45 46  1  0
 46 47  1  0
 47 48  2  0
 48 49  1  0
 49 50  1  0
 50 51  2  0
 51 52  1  0
 52 53  2  0
 53 54  1  0
 54 55  2  0
 34 56  1  1
 56 57  2  0
 56 58  1  0
 58 59  1  0
 12  1  1  0
 33 12  1  0
 48 34  1  0
 55 50  1  0
 23  1  1  0
 31 23  1  0
 44 36  1  0
 55 47  1  0
 11  4  1  0
 33 15  1  1
M  END
$$$$
