
     RDKit          3D

 59 68  0  0  0  0  0  0  0  0999 V2000
  146.3786  166.3182  133.1958 C   0  0  2  0  0  0  0  0  0  0  0  0
  146.9933  165.6110  132.1005 N   0  0  0  0  0  0  0  0  0  0  0  0
  147.0852  164.1748  131.9706 C   0  0  0  0  0  0  0  0  0  0  0  0
  147.4830  166.5951  131.1884 C   0  0  0  0  0  0  0  0  0  0  0  0
  148.3454  166.4753  130.0874 C   0  0  0  0  0  0  0  0  0  0  0  0
  148.6844  167.5701  129.3438 C   0  0  0  0  0  0  0  0  0  0  0  0
  149.5467  167.4004  128.2565 O   0  0  0  0  0  0  0  0  0  0  0  0
  150.1897  166.1832  128.0235 C   0  0  0  0  0  0  0  0  0  0  0  0
  148.1697  168.7989  129.6858 C   0  0  0  0  0  0  0  0  0  0  0  0
  147.3419  168.9011  130.7444 C   0  0  0  0  0  0  0  0  0  0  0  0
  146.9627  167.8063  131.5417 C   0  0  0  0  0  0  0  0  0  0  0  0
  146.0871  167.6739  132.7297 C   0  0  1  0  0  0  0  0  0  0  0  0
  144.6583  167.7694  132.2398 C   0  0  0  0  0  0  0  0  0  0  0  0
  144.4103  169.2402  132.3369 C   0  0  0  0  0  0  0  0  0  0  0  0
  145.4190  169.8130  133.1675 N   0  0  0  0  0  0  0  0  0  0  0  0
  144.8124  170.6716  134.1605 C   0  0  0  0  0  0  0  0  0  0  0  0
  144.1392  169.8612  135.2056 C   0  0  0  0  0  0  0  0  0  0  0  0
  144.7645  168.7968  135.6705 C   0  0  0  0  0  0  0  0  0  0  0  0
  146.1091  168.4533  135.1362 C   0  0  1  0  0  0  0  0  0  0  0  0
  147.0812  169.2749  136.0138 C   0  0  0  0  0  0  0  0  0  0  0  0
  146.2592  169.8885  137.1197 C   0  0  0  0  0  0  0  0  0  0  0  0
  146.3964  167.0245  135.5110 C   0  0  0  0  0  0  0  0  0  0  0  0
  147.1639  166.2540  134.4720 C   0  0  1  0  0  0  0  0  0  0  0  0
  147.2341  164.9193  134.9601 O   0  0  0  0  0  0  0  0  0  0  0  0
  148.3293  164.8608  135.7983 C   0  0  0  0  0  0  0  0  0  0  0  0
  148.5267  164.0118  136.7341 O   0  0  0  0  0  0  0  0  0  0  0  0
  149.2195  165.9233  135.4408 N   0  0  0  0  0  0  0  0  0  0  0  0
  150.4953  166.2321  136.0491 C   0  0  0  0  0  0  0  0  0  0  0  0
  150.4446  167.4164  136.9789 C   0  0  0  0  0  0  0  0  0  0  0  0
  150.2582  168.9398  136.0492 Cl  0  0  0  0  0  0  0  0  0  0  0  0
  148.5778  166.6037  134.3473 C   0  0  0  0  0  0  0  0  0  0  0  0
  149.2303  167.3115  133.5401 O   0  0  0  0  0  0  0  0  0  0  0  0
  146.2610  168.7881  133.7070 C   0  0  1  0  0  0  0  0  0  0  0  0
  148.4839  169.9346  128.8292 C   0  0  1  0  0  0  0  0  0  0  0  0
  149.0125  169.6519  127.4735 C   0  0  0  0  0  0  0  0  0  0  0  0
  148.3093  169.0451  126.3878 C   0  0  1  0  0  0  0  0  0  0  0  0
  146.8986  168.6200  126.4283 C   0  0  0  0  0  0  0  0  0  0  0  0
  146.0678  169.7676  126.5620 N   0  0  0  0  0  0  0  0  0  0  0  0
  145.9505  170.4207  125.3224 C   0  0  0  0  0  0  0  0  0  0  0  0
  147.3337  170.8793  124.9122 C   0  0  2  0  0  0  0  0  0  0  0  0
  147.5549  172.1328  125.4841 O   0  0  0  0  0  0  0  0  0  0  0  0
  147.2633  171.1560  123.3974 C   0  0  0  0  0  0  0  0  0  0  0  0
  147.2352  169.8537  122.6262 C   0  0  0  0  0  0  0  0  0  0  0  0
  148.4276  169.9063  125.1062 C   0  0  0  0  0  0  0  0  0  0  0  0
  144.8599  169.3625  127.2411 C   0  0  0  0  0  0  0  0  0  0  0  0
  145.2347  169.6710  128.7343 C   0  0  0  0  0  0  0  0  0  0  0  0
  146.1080  170.8936  128.7043 C   0  0  0  0  0  0  0  0  0  0  0  0
  147.4310  170.9767  128.7070 C   0  0  0  0  0  0  0  0  0  0  0  0
  147.7438  172.3116  128.5989 N   0  0  0  0  0  0  0  0  0  0  0  0
  146.6405  173.0650  128.5327 C   0  0  0  0  0  0  0  0  0  0  0  0
  146.4331  174.4266  128.4232 C   0  0  0  0  0  0  0  0  0  0  0  0
  145.1552  174.9565  128.3753 C   0  0  0  0  0  0  0  0  0  0  0  0
  144.0932  174.0822  128.4403 C   0  0  0  0  0  0  0  0  0  0  0  0
  144.3190  172.7298  128.5491 C   0  0  0  0  0  0  0  0  0  0  0  0
  145.6006  172.1892  128.5979 C   0  0  0  0  0  0  0  0  0  0  0  0
  149.7233  170.4955  129.5455 C   0  0  0  0  0  0  0  0  0  0  0  0
  150.0979  169.9201  130.5694 O   0  0  0  0  0  0  0  0  0  0  0  0
  150.3834  171.5855  129.0695 O   0  0  0  0  0  0  0  0  0  0  0  0
  151.7559  171.5754  128.6853 C   0  0  0  0  0  0  0  0  0  0  0  0
  1  2  1  6
  2  3  1  0
  2  4  1  0
  4  5  2  0
  5  6  1  0
  6  7  1  0
  7  8  1  0
  6  9  2  0
  9 10  1  0
 10 11  2  0
 11 12  1  0
 12 13  1  6
 13 14  1  0
 14 15  1  0
 15 16  1  0
 16 17  1  0
 17 18  2  0
 18 19  1  0
 19 20  1  1
 20 21  1  0
 19 22  1  0
 23 22  1  1
 23 24  1  0
 24 25  1  0
 25 26  2  0
 25 27  1  0
 27 28  1  0
 28 29  1  0
 29 30  1  0
 27 31  1  0
 31 32  2  0
 19 33  1  0
  9 34  1  0
 34 35  1  0
 36 35  1  1
 36 37  1  0
 37 38  1  0
 38 39  1  0
 39 40  1  0
 40 41  1  1
 40 42  1  0
 42 43  1  0
 40 44  1  0
 38 45  1  0
 45 46  1  0
 46 47  1  0
 47 48  2  0
 48 49  1  0
 49 50  1  0
 50 51  2  0
 51 52  1  0
 52 53  2  0
 53 54  1  0
 54 55  2  0
 34 56  1  1
 56 57  2  0
 56 58  1  0
 58 59  1  0
 12  1  1  0
 33 12  1  0
 48 34  1  0
 55 50  1  0
 23  1  1  0
 31 23  1  0
 44 36  1  0
 55 47  1  0
 11  4  1  0
 33 15  1  6
M  END
$$$$
