
     RDKit          3D

 59 68  0  0  0  0  0  0  0  0999 V2000
  147.3596  166.1603  133.9758 C   0  0  2  0  0  0  0  0  0  0  0  0
  147.4400  165.5092  132.6925 N   0  0  0  0  0  0  0  0  0  0  0  0
  147.3508  164.0852  132.4631 C   0  0  0  0  0  0  0  0  0  0  0  0
  147.6219  166.5333  131.7136 C   0  0  0  0  0  0  0  0  0  0  0  0
  147.9782  166.4522  130.3582 C   0  0  0  0  0  0  0  0  0  0  0  0
  148.0963  167.5818  129.5988 C   0  0  0  0  0  0  0  0  0  0  0  0
  148.4534  167.4501  128.2535 O   0  0  0  0  0  0  0  0  0  0  0  0
  149.2191  166.3707  127.8084 C   0  0  0  0  0  0  0  0  0  0  0  0
  147.8614  168.8071  130.1778 C   0  0  0  0  0  0  0  0  0  0  0  0
  147.5191  168.8719  131.4798 C   0  0  0  0  0  0  0  0  0  0  0  0
  147.3848  167.7404  132.3042 C   0  0  0  0  0  0  0  0  0  0  0  0
  147.0284  167.5642  133.7316 C   0  0  1  0  0  0  0  0  0  0  0  0
  145.5352  167.7833  133.8457 C   0  0  0  0  0  0  0  0  0  0  0  0
  145.4714  169.2535  134.1078 C   0  0  0  0  0  0  0  0  0  0  0  0
  146.7679  169.6965  134.5057 N   0  0  0  0  0  0  0  0  0  0  0  0
  146.6684  170.5062  135.6997 C   0  0  0  0  0  0  0  0  0  0  0  0
  146.3843  169.6550  136.8817 C   0  0  0  0  0  0  0  0  0  0  0  0
  147.0467  168.5214  137.0091 C   0  0  0  0  0  0  0  0  0  0  0  0
  148.0454  168.1435  135.9742 C   0  0  1  0  0  0  0  0  0  0  0  0
  149.3479  168.8324  136.4424 C   0  0  0  0  0  0  0  0  0  0  0  0
  149.0112  169.5954  137.6993 C   0  0  0  0  0  0  0  0  0  0  0  0
  148.3312  166.6745  136.1324 C   0  0  0  0  0  0  0  0  0  0  0  0
  148.5684  165.9467  134.8377 C   0  0  1  0  0  0  0  0  0  0  0  0
  148.7067  164.5751  135.1899 O   0  0  0  0  0  0  0  0  0  0  0  0
  150.0313  164.3843  135.5283 C   0  0  0  0  0  0  0  0  0  0  0  0
  150.5011  163.4521  136.2670 O   0  0  0  0  0  0  0  0  0  0  0  0
  150.8020  165.4178  134.9061 N   0  0  0  0  0  0  0  0  0  0  0  0
  152.2351  165.6004  134.9817 C   0  0  0  0  0  0  0  0  0  0  0  0
  152.9771  165.0074  133.8124 C   0  0  0  0  0  0  0  0  0  0  0  0
  153.2847  163.2603  134.0820 Cl  0  0  0  0  0  0  0  0  0  0  0  0
  149.8486  166.2212  134.1877 C   0  0  0  0  0  0  0  0  0  0  0  0
  150.1968  166.9523  133.2272 O   0  0  0  0  0  0  0  0  0  0  0  0
  147.6615  168.5834  134.6189 C   0  0  1  0  0  0  0  0  0  0  0  0
  147.9167  169.9879  129.3264 C   0  0  1  0  0  0  0  0  0  0  0  0
  149.0549  170.1076  128.3845 C   0  0  0  0  0  0  0  0  0  0  0  0
  149.3133  169.2888  127.2424 C   0  0  1  0  0  0  0  0  0  0  0  0
  148.4518  168.1844  126.7834 C   0  0  0  0  0  0  0  0  0  0  0  0
  147.2051  168.7139  126.3470 N   0  0  0  0  0  0  0  0  0  0  0  0
  147.3472  169.2815  125.0686 C   0  0  0  0  0  0  0  0  0  0  0  0
  148.3362  170.4222  125.1799 C   0  0  2  0  0  0  0  0  0  0  0  0
  147.6275  171.5677  125.5442 O   0  0  0  0  0  0  0  0  0  0  0  0
  148.8218  170.7116  123.7458 C   0  0  0  0  0  0  0  0  0  0  0  0
  149.4086  169.4607  123.1272 C   0  0  0  0  0  0  0  0  0  0  0  0
  149.5471  170.1593  125.9832 C   0  0  0  0  0  0  0  0  0  0  0  0
  146.2007  167.6944  126.5374 C   0  0  0  0  0  0  0  0  0  0  0  0
  145.6629  168.0629  127.9657 C   0  0  0  0  0  0  0  0  0  0  0  0
  145.7246  169.5611  128.0644 C   0  0  0  0  0  0  0  0  0  0  0  0
  146.6701  170.3265  128.5908 C   0  0  0  0  0  0  0  0  0  0  0  0
  146.2926  171.6304  128.3696 N   0  0  0  0  0  0  0  0  0  0  0  0
  145.1261  171.6942  127.7181 C   0  0  0  0  0  0  0  0  0  0  0  0
  144.3475  172.7475  127.2785 C   0  0  0  0  0  0  0  0  0  0  0  0
  143.1529  172.5288  126.6143 C   0  0  0  0  0  0  0  0  0  0  0  0
  142.7628  171.2249  126.4042 C   0  0  0  0  0  0  0  0  0  0  0  0
  143.5509  170.1891  126.8490 C   0  0  0  0  0  0  0  0  0  0  0  0
  144.7531  170.4006  127.5176 C   0  0  0  0  0  0  0  0  0  0  0  0
  148.2460  171.0717  130.3658 C   0  0  0  0  0  0  0  0  0  0  0  0
  148.7558  170.7062  131.4271 O   0  0  0  0  0  0  0  0  0  0  0  0
  147.9857  172.3852  130.1261 O   0  0  0  0  0  0  0  0  0  0  0  0
  147.8079  173.3579  131.1525 C   0  0  0  0  0  0  0  0  0  0  0  0
  1  2  1  6
  2  3  1  0
  2  4  1  0
  4  5  2  0
  5  6  1  0
  6  7  1  0
  7  8  1  0
  6  9  2  0
  9 10  1  0
 10 11  2  0
 11 12  1  0
 12 13  1  6
 13 14  1  0
 14 15  1  0
 15 16  1  0
 16 17  1  0
 17 18  2  0
 18 19  1  0
 19 20  1  1
 20 21  1  0
 19 22  1  0
 23 22  1  1
 23 24  1  0
 24 25  1  0
 25 26  2  0
 25 27  1  0
 27 28  1  0
 28 29  1  0
 29 30  1  0
 27 31  1  0
 31 32  2  0
 19 33  1  0
  9 34  1  0
 34 35  1  0
 36 35  1  1
 36 37  1  0
 37 38  1  0
 38 39  1  0
 39 40  1  0
 40 41  1  1
 40 42  1  0
 42 43  1  0
 40 44  1  0
 38 45  1  0
 45 46  1  0
 46 47  1  0
 47 48  2  0
 48 49  1  0
 49 50  1  0
 50 51  2  0
 51 52  1  0
 52 53  2  0
 53 54  1  0
 54 55  2  0
 34 56  1  1
 56 57  2  0
 56 58  1  0
 58 59  1  0
 12  1  1  0
 33 12  1  0
 48 34  1  0
 55 50  1  0
 23  1  1  0
 31 23  1  0
 44 36  1  0
 55 47  1  0
 11  4  1  0
 33 15  1  1
M  END
$$$$
