
     RDKit          3D

 59 68  0  0  0  0  0  0  0  0999 V2000
  129.8130  141.9629  130.6786 C   0  0  2  0  0  0  0  0  0  0  0  0
  128.5013  141.5692  130.2292 N   0  0  0  0  0  0  0  0  0  0  0  0
  127.4339  142.4684  129.8545 C   0  0  0  0  0  0  0  0  0  0  0  0
  128.4695  140.1413  130.2289 C   0  0  0  0  0  0  0  0  0  0  0  0
  127.3937  139.2489  130.0988 C   0  0  0  0  0  0  0  0  0  0  0  0
  127.5995  137.8986  130.1279 C   0  0  0  0  0  0  0  0  0  0  0  0
  126.4965  137.0499  129.9942 O   0  0  0  0  0  0  0  0  0  0  0  0
  125.2916  137.5055  129.4557 C   0  0  0  0  0  0  0  0  0  0  0  0
  128.8784  137.4181  130.2867 C   0  0  0  0  0  0  0  0  0  0  0  0
  129.9032  138.2849  130.4096 C   0  0  0  0  0  0  0  0  0  0  0  0
  129.7448  139.6821  130.3868 C   0  0  0  0  0  0  0  0  0  0  0  0
  130.6975  140.8111  130.5017 C   0  0  1  0  0  0  0  0  0  0  0  0
  131.4329  140.9063  129.1823 C   0  0  0  0  0  0  0  0  0  0  0  0
  132.6054  140.0136  129.4324 C   0  0  0  0  0  0  0  0  0  0  0  0
  132.7172  139.8007  130.8387 N   0  0  0  0  0  0  0  0  0  0  0  0
  134.0815  140.0207  131.2647 C   0  0  0  0  0  0  0  0  0  0  0  0
  134.3981  141.4705  131.2633 C   0  0  0  0  0  0  0  0  0  0  0  0
  133.5016  142.3064  131.7508 C   0  0  0  0  0  0  0  0  0  0  0  0
  132.2200  141.7692  132.2803 C   0  0  1  0  0  0  0  0  0  0  0  0
  132.5397  141.4227  133.7527 C   0  0  0  0  0  0  0  0  0  0  0  0
  133.8138  142.1490  134.1057 C   0  0  0  0  0  0  0  0  0  0  0  0
  131.2508  142.9164  132.3765 C   0  0  0  0  0  0  0  0  0  0  0  0
  129.8267  142.5524  132.0577 C   0  0  1  0  0  0  0  0  0  0  0  0
  129.1016  143.7760  132.0957 O   0  0  0  0  0  0  0  0  0  0  0  0
  128.7433  143.9838  133.4125 C   0  0  0  0  0  0  0  0  0  0  0  0
  128.4524  145.1053  133.9539 O   0  0  0  0  0  0  0  0  0  0  0  0
  128.7517  142.7176  134.0802 N   0  0  0  0  0  0  0  0  0  0  0  0
  128.4296  142.4627  135.4674 C   0  0  0  0  0  0  0  0  0  0  0  0
  129.5764  141.8800  136.2514 C   0  0  0  0  0  0  0  0  0  0  0  0
  129.9418  142.8972  137.6836 Cl  0  0  0  0  0  0  0  0  0  0  0  0
  129.1370  141.7620  133.0758 C   0  0  0  0  0  0  0  0  0  0  0  0
  128.8654  140.5409  133.1921 O   0  0  0  0  0  0  0  0  0  0  0  0
  131.7452  140.5842  131.5398 C   0  0  1  0  0  0  0  0  0  0  0  0
  129.0789  135.9761  130.2345 C   0  0  1  0  0  0  0  0  0  0  0  0
  128.3209  135.2097  129.2171 C   0  0  0  0  0  0  0  0  0  0  0  0
  128.4854  135.2702  127.7990 C   0  0  1  0  0  0  0  0  0  0  0  0
  129.4823  136.1004  127.0996 C   0  0  0  0  0  0  0  0  0  0  0  0
  130.7874  135.6271  127.4122 N   0  0  0  0  0  0  0  0  0  0  0  0
  131.0675  134.4679  126.6675 C   0  0  0  0  0  0  0  0  0  0  0  0
  130.0663  133.4077  127.0743 C   0  0  2  0  0  0  0  0  0  0  0  0
  130.5780  132.7427  128.1893 O   0  0  0  0  0  0  0  0  0  0  0  0
  130.0833  132.3482  125.9548 C   0  0  0  0  0  0  0  0  0  0  0  0
  129.7776  132.9907  124.6186 C   0  0  0  0  0  0  0  0  0  0  0  0
  128.6638  133.8511  127.2051 C   0  0  0  0  0  0  0  0  0  0  0  0
  131.6981  136.7430  127.3130 C   0  0  0  0  0  0  0  0  0  0  0  0
  131.7133  137.2536  128.7977 C   0  0  0  0  0  0  0  0  0  0  0  0
  131.5791  136.0327  129.6634 C   0  0  0  0  0  0  0  0  0  0  0  0
  130.4900  135.5094  130.2085 C   0  0  0  0  0  0  0  0  0  0  0  0
  130.8823  134.3570  130.8484 N   0  0  0  0  0  0  0  0  0  0  0  0
  132.1977  134.1523  130.7169 C   0  0  0  0  0  0  0  0  0  0  0  0
  133.0482  133.1620  131.1694 C   0  0  0  0  0  0  0  0  0  0  0  0
  134.4024  133.1933  130.8841 C   0  0  0  0  0  0  0  0  0  0  0  0
  134.8777  134.2451  130.1331 C   0  0  0  0  0  0  0  0  0  0  0  0
  134.0159  135.2219  129.6913 C   0  0  0  0  0  0  0  0  0  0  0  0
  132.6533  135.1977  129.9738 C   0  0  0  0  0  0  0  0  0  0  0  0
  128.3882  135.5464  131.5391 C   0  0  0  0  0  0  0  0  0  0  0  0
  128.8221  136.0148  132.5937 O   0  0  0  0  0  0  0  0  0  0  0  0
  127.3379  134.6821  131.5328 O   0  0  0  0  0  0  0  0  0  0  0  0
  126.2826  134.7104  132.4904 C   0  0  0  0  0  0  0  0  0  0  0  0
  1  2  1  1
  2  3  1  0
  2  4  1  0
  4  5  2  0
  5  6  1  0
  6  7  1  0
  7  8  1  0
  6  9  2  0
  9 10  1  0
 10 11  2  0
 11 12  1  0
 12 13  1  6
 13 14  1  0
 14 15  1  0
 15 16  1  0
 16 17  1  0
 17 18  2  0
 18 19  1  0
 19 20  1  1
 20 21  1  0
 19 22  1  0
 23 22  1  1
 23 24  1  0
 24 25  1  0
 25 26  2  0
 25 27  1  0
 27 28  1  0
 28 29  1  0
 29 30  1  0
 27 31  1  0
 31 32  2  0
 19 33  1  0
  9 34  1  0
 34 35  1  0
 36 35  1  1
 36 37  1  0
 37 38  1  0
 38 39  1  0
 39 40  1  0
 40 41  1  1
 40 42  1  0
 42 43  1  0
 40 44  1  0
 38 45  1  0
 45 46  1  0
 46 47  1  0
 47 48  2  0
 48 49  1  0
 49 50  1  0
 50 51  2  0
 51 52  1  0
 52 53  2  0
 53 54  1  0
 54 55  2  0
 34 56  1  1
 56 57  2  0
 56 58  1  0
 58 59  1  0
 12  1  1  0
 33 12  1  0
 48 34  1  0
 55 50  1  0
 23  1  1  0
 31 23  1  0
 44 36  1  0
 55 47  1  0
 11  4  1  0
 33 15  1  6
M  END
$$$$
