
     RDKit          3D

 59 68  0  0  0  0  0  0  0  0999 V2000
  145.8629  167.0646  133.9728 C   0  0  2  0  0  0  0  0  0  0  0  0
  145.5039  166.4923  132.6996 N   0  0  0  0  0  0  0  0  0  0  0  0
  144.9684  165.1662  132.4928 C   0  0  0  0  0  0  0  0  0  0  0  0
  145.7783  167.4793  131.7042 C   0  0  0  0  0  0  0  0  0  0  0  0
  145.8274  167.3802  130.3049 C   0  0  0  0  0  0  0  0  0  0  0  0
  146.1145  168.4733  129.5373 C   0  0  0  0  0  0  0  0  0  0  0  0
  146.1519  168.3249  128.1476 O   0  0  0  0  0  0  0  0  0  0  0  0
  146.1597  167.0617  127.5529 C   0  0  0  0  0  0  0  0  0  0  0  0
  146.3566  169.6797  130.1519 C   0  0  0  0  0  0  0  0  0  0  0  0
  146.3056  169.7625  131.4962 C   0  0  0  0  0  0  0  0  0  0  0  0
  146.0153  168.6683  132.3306 C   0  0  0  0  0  0  0  0  0  0  0  0
  145.9064  168.5168  133.8006 C   0  0  1  0  0  0  0  0  0  0  0  0
  144.5898  169.1384  134.2137 C   0  0  0  0  0  0  0  0  0  0  0  0
  145.0013  170.5499  134.4835 C   0  0  0  0  0  0  0  0  0  0  0  0
  146.4217  170.5881  134.6115 N   0  0  0  0  0  0  0  0  0  0  0  0
  146.7908  171.3228  135.8012 C   0  0  0  0  0  0  0  0  0  0  0  0
  146.5092  170.5184  137.0160 C   0  0  0  0  0  0  0  0  0  0  0  0
  146.8312  169.2392  137.0070 C   0  0  0  0  0  0  0  0  0  0  0  0
  147.4603  168.6571  135.7918 C   0  0  1  0  0  0  0  0  0  0  0  0
  148.9703  168.9252  135.9875 C   0  0  0  0  0  0  0  0  0  0  0  0
  149.0963  170.3122  136.5671 C   0  0  0  0  0  0  0  0  0  0  0  0
  147.3388  167.1603  135.8890 C   0  0  0  0  0  0  0  0  0  0  0  0
  147.1028  166.4714  134.5730 C   0  0  1  0  0  0  0  0  0  0  0  0
  146.9083  165.0980  134.8899 O   0  0  0  0  0  0  0  0  0  0  0  0
  148.1623  164.5244  134.9539 C   0  0  0  0  0  0  0  0  0  0  0  0
  148.4794  163.4568  135.5825 O   0  0  0  0  0  0  0  0  0  0  0  0
  149.0610  165.3348  134.1891 N   0  0  0  0  0  0  0  0  0  0  0  0
  150.4728  165.1039  133.9739 C   0  0  0  0  0  0  0  0  0  0  0  0
  150.7931  163.6896  133.5657 C   0  0  0  0  0  0  0  0  0  0  0  0
  149.9104  162.5198  134.6010 Cl  0  0  0  0  0  0  0  0  0  0  0  0
  148.2572  166.4133  133.6780 C   0  0  0  0  0  0  0  0  0  0  0  0
  148.6074  167.0718  132.6670 O   0  0  0  0  0  0  0  0  0  0  0  0
  146.9637  169.2646  134.5419 C   0  0  1  0  0  0  0  0  0  0  0  0
  146.5817  170.8449  129.3070 C   0  0  1  0  0  0  0  0  0  0  0  0
  146.3019  170.7115  127.8575 C   0  0  0  0  0  0  0  0  0  0  0  0
  145.0246  170.5299  127.2434 C   0  0  1  0  0  0  0  0  0  0  0  0
  143.7408  170.4768  127.9654 C   0  0  0  0  0  0  0  0  0  0  0  0
  143.4802  171.7476  128.5504 N   0  0  0  0  0  0  0  0  0  0  0  0
  143.0174  172.6410  127.5683 C   0  0  0  0  0  0  0  0  0  0  0  0
  144.1181  172.8058  126.5421 C   0  0  2  0  0  0  0  0  0  0  0  0
  144.9645  173.8236  126.9837 O   0  0  0  0  0  0  0  0  0  0  0  0
  143.4471  173.3853  125.2812 C   0  0  0  0  0  0  0  0  0  0  0  0
  143.2619  172.3023  124.2397 C   0  0  0  0  0  0  0  0  0  0  0  0
  144.8035  171.5689  126.1165 C   0  0  0  0  0  0  0  0  0  0  0  0
  142.6660  171.5358  129.7237 C   0  0  0  0  0  0  0  0  0  0  0  0
  143.7651  171.4377  130.8406 C   0  0  0  0  0  0  0  0  0  0  0  0
  144.8628  172.3799  130.4339 C   0  0  0  0  0  0  0  0  0  0  0  0
  145.9852  172.1227  129.7774 C   0  0  0  0  0  0  0  0  0  0  0  0
  146.6187  173.3289  129.5891 N   0  0  0  0  0  0  0  0  0  0  0  0
  145.9148  174.3351  130.1197 C   0  0  0  0  0  0  0  0  0  0  0  0
  146.1257  175.6985  130.1922 C   0  0  0  0  0  0  0  0  0  0  0  0
  145.2147  176.5336  130.8157 C   0  0  0  0  0  0  0  0  0  0  0  0
  144.0878  175.9621  131.3633 C   0  0  0  0  0  0  0  0  0  0  0  0
  143.8948  174.6027  131.2814 C   0  0  0  0  0  0  0  0  0  0  0  0
  144.8059  173.7563  130.6564 C   0  0  0  0  0  0  0  0  0  0  0  0
  148.1170  170.9203  129.3311 C   0  0  0  0  0  0  0  0  0  0  0  0
  148.6487  171.3741  130.3466 O   0  0  0  0  0  0  0  0  0  0  0  0
  148.8631  170.5028  128.2731 O   0  0  0  0  0  0  0  0  0  0  0  0
  150.2883  170.4892  128.2647 C   0  0  0  0  0  0  0  0  0  0  0  0
  1  2  1  6
  2  3  1  0
  2  4  1  0
  4  5  2  0
  5  6  1  0
  6  7  1  0
  7  8  1  0
  6  9  2  0
  9 10  1  0
 10 11  2  0
 11 12  1  0
 12 13  1  1
 13 14  1  0
 14 15  1  0
 15 16  1  0
 16 17  1  0
 17 18  2  0
 18 19  1  0
 19 20  1  1
 20 21  1  0
 19 22  1  0
 23 22  1  1
 23 24  1  0
 24 25  1  0
 25 26  2  0
 25 27  1  0
 27 28  1  0
 28 29  1  0
 29 30  1  0
 27 31  1  0
 31 32  2  0
 19 33  1  0
  9 34  1  0
 34 35  1  0
 36 35  1  1
 36 37  1  0
 37 38  1  0
 38 39  1  0
 39 40  1  0
 40 41  1  1
 40 42  1  0
 42 43  1  0
 40 44  1  0
 38 45  1  0
 45 46  1  0
 46 47  1  0
 47 48  2  0
 48 49  1  0
 49 50  1  0
 50 51  2  0
 51 52  1  0
 52 53  2  0
 53 54  1  0
 54 55  2  0
 34 56  1  6
 56 57  2  0
 56 58  1  0
 58 59  1  0
 12  1  1  0
 33 12  1  0
 48 34  1  0
 55 50  1  0
 23  1  1  0
 31 23  1  0
 44 36  1  0
 55 47  1  0
 11  4  1  0
 33 15  1  1
M  END
$$$$
