
     RDKit          3D

 59 68  0  0  0  0  0  0  0  0999 V2000
  177.0308  146.7656  123.2734 C   0  0  2  0  0  0  0  0  0  0  0  0
  176.1620  146.4360  124.3753 N   0  0  0  0  0  0  0  0  0  0  0  0
  176.5631  146.3188  125.7586 C   0  0  0  0  0  0  0  0  0  0  0  0
  174.8523  146.2525  123.8359 C   0  0  0  0  0  0  0  0  0  0  0  0
  173.6918  145.7119  124.4117 C   0  0  0  0  0  0  0  0  0  0  0  0
  172.5297  145.6331  123.6976 C   0  0  0  0  0  0  0  0  0  0  0  0
  171.4003  145.0868  124.3144 O   0  0  0  0  0  0  0  0  0  0  0  0
  171.4821  144.4747  125.5666 C   0  0  0  0  0  0  0  0  0  0  0  0
  172.5069  146.0913  122.4010 C   0  0  0  0  0  0  0  0  0  0  0  0
  173.6272  146.6091  121.8595 C   0  0  0  0  0  0  0  0  0  0  0  0
  174.8474  146.7121  122.5510 C   0  0  0  0  0  0  0  0  0  0  0  0
  176.1835  147.2309  122.1753 C   0  0  1  0  0  0  0  0  0  0  0  0
  176.0903  148.7415  122.1823 C   0  0  0  0  0  0  0  0  0  0  0  0
  175.6883  149.0193  120.7696 C   0  0  0  0  0  0  0  0  0  0  0  0
  175.9436  147.8514  119.9910 N   0  0  0  0  0  0  0  0  0  0  0  0
  176.6624  148.2072  118.7877 C   0  0  0  0  0  0  0  0  0  0  0  0
  178.0734  148.5395  119.1053 C   0  0  0  0  0  0  0  0  0  0  0  0
  178.7216  147.7661  119.9548 C   0  0  0  0  0  0  0  0  0  0  0  0
  178.0211  146.5999  120.5552 C   0  0  1  0  0  0  0  0  0  0  0  0
  178.2341  145.4656  119.5266 C   0  0  0  0  0  0  0  0  0  0  0  0
  179.6539  145.5856  119.0315 C   0  0  0  0  0  0  0  0  0  0  0  0
  178.8159  146.1598  121.7550 C   0  0  0  0  0  0  0  0  0  0  0  0
  177.9806  145.6652  122.9038 C   0  0  1  0  0  0  0  0  0  0  0  0
  178.8979  145.4079  123.9606 O   0  0  0  0  0  0  0  0  0  0  0  0
  179.3747  144.1268  123.7686 C   0  0  0  0  0  0  0  0  0  0  0  0
  180.4730  143.6487  124.2164 O   0  0  0  0  0  0  0  0  0  0  0  0
  178.4219  143.4127  122.9739 N   0  0  0  0  0  0  0  0  0  0  0  0
  178.5086  142.0356  122.5391 C   0  0  0  0  0  0  0  0  0  0  0  0
  178.2724  141.0418  123.6463 C   0  0  0  0  0  0  0  0  0  0  0  0
  179.4392  141.3004  124.9846 Cl  0  0  0  0  0  0  0  0  0  0  0  0
  177.3645  144.3533  122.7138 C   0  0  0  0  0  0  0  0  0  0  0  0
  176.2088  143.9727  122.4010 O   0  0  0  0  0  0  0  0  0  0  0  0
  176.5859  146.8512  120.7894 C   0  0  1  0  0  0  0  0  0  0  0  0
  171.2357  146.0684  121.6897 C   0  0  1  0  0  0  0  0  0  0  0  0
  171.1628  145.2903  120.4303 C   0  0  0  0  0  0  0  0  0  0  0  0
  171.2499  143.8707  120.2924 C   0  0  1  0  0  0  0  0  0  0  0  0
  171.3974  142.9217  121.4105 C   0  0  0  0  0  0  0  0  0  0  0  0
  170.2200  142.9532  122.2092 N   0  0  0  0  0  0  0  0  0  0  0  0
  169.1953  142.2243  121.5805 C   0  0  0  0  0  0  0  0  0  0  0  0
  168.8934  142.9014  120.2605 C   0  0  2  0  0  0  0  0  0  0  0  0
  167.9521  143.9033  120.5001 O   0  0  0  0  0  0  0  0  0  0  0  0
  168.1392  141.8628  119.4070 C   0  0  0  0  0  0  0  0  0  0  0  0
  168.9800  140.6161  119.2321 C   0  0  0  0  0  0  0  0  0  0  0  0
  170.0618  143.3249  119.4627 C   0  0  0  0  0  0  0  0  0  0  0  0
  170.5904  142.5929  123.5573 C   0  0  0  0  0  0  0  0  0  0  0  0
  170.8500  144.0073  124.1876 C   0  0  0  0  0  0  0  0  0  0  0  0
  169.8656  144.9419  123.5428 C   0  0  0  0  0  0  0  0  0  0  0  0
  170.0336  145.7461  122.5026 C   0  0  0  0  0  0  0  0  0  0  0  0
  168.8162  146.3379  122.2593 N   0  0  0  0  0  0  0  0  0  0  0  0
  167.8910  145.9214  123.1311 C   0  0  0  0  0  0  0  0  0  0  0  0
  166.5523  146.2186  123.2998 C   0  0  0  0  0  0  0  0  0  0  0  0
  165.8085  145.6318  124.3090 C   0  0  0  0  0  0  0  0  0  0  0  0
  166.4456  144.7398  125.1426 C   0  0  0  0  0  0  0  0  0  0  0  0
  167.7790  144.4564  124.9594 C   0  0  0  0  0  0  0  0  0  0  0  0
  168.5338  145.0420  123.9473 C   0  0  0  0  0  0  0  0  0  0  0  0
  171.1722  147.5160  121.1757 C   0  0  0  0  0  0  0  0  0  0  0  0
  171.5608  147.7289  120.0253 O   0  0  0  0  0  0  0  0  0  0  0  0
  170.7054  148.5256  121.9587 O   0  0  0  0  0  0  0  0  0  0  0  0
  171.4933  149.6410  122.3668 C   0  0  0  0  0  0  0  0  0  0  0  0
  1  2  1  1
  2  3  1  0
  2  4  1  0
  4  5  2  0
  5  6  1  0
  6  7  1  0
  7  8  1  0
  6  9  2  0
  9 10  1  0
 10 11  2  0
 11 12  1  0
 12 13  1  6
 13 14  1  0
 14 15  1  0
 15 16  1  0
 16 17  1  0
 17 18  2  0
 18 19  1  0
 19 20  1  6
 20 21  1  0
 19 22  1  0
 23 22  1  6
 23 24  1  0
 24 25  1  0
 25 26  2  0
 25 27  1  0
 27 28  1  0
 28 29  1  0
 29 30  1  0
 27 31  1  0
 31 32  2  0
 19 33  1  0
  9 34  1  0
 34 35  1  0
 36 35  1  1
 36 37  1  0
 37 38  1  0
 38 39  1  0
 39 40  1  0
 40 41  1  1
 40 42  1  0
 42 43  1  0
 40 44  1  0
 38 45  1  0
 45 46  1  0
 46 47  1  0
 47 48  2  0
 48 49  1  0
 49 50  1  0
 50 51  2  0
 51 52  1  0
 52 53  2  0
 53 54  1  0
 54 55  2  0
 34 56  1  6
 56 57  2  0
 56 58  1  0
 58 59  1  0
 12  1  1  0
 33 12  1  0
 48 34  1  0
 55 50  1  0
 23  1  1  0
 31 23  1  0
 44 36  1  0
 55 47  1  0
 11  4  1  0
 33 15  1  6
M  END
$$$$
