
     RDKit          3D

 59 68  0  0  0  0  0  0  0  0999 V2000
  146.6192  167.6371  134.8832 C   0  0  2  0  0  0  0  0  0  0  0  0
  147.1199  166.4275  134.2802 N   0  0  0  0  0  0  0  0  0  0  0  0
  147.0518  165.1059  134.8608 C   0  0  0  0  0  0  0  0  0  0  0  0
  147.6852  166.7904  133.0197 C   0  0  0  0  0  0  0  0  0  0  0  0
  148.4955  166.0615  132.1351 C   0  0  0  0  0  0  0  0  0  0  0  0
  148.9281  166.6183  130.9649 C   0  0  0  0  0  0  0  0  0  0  0  0
  149.7333  165.8527  130.1163 O   0  0  0  0  0  0  0  0  0  0  0  0
  150.2067  164.5973  130.5028 C   0  0  0  0  0  0  0  0  0  0  0  0
  148.5602  167.9079  130.6593 C   0  0  0  0  0  0  0  0  0  0  0  0
  147.7811  168.5972  131.5162 C   0  0  0  0  0  0  0  0  0  0  0  0
  147.3102  168.0707  132.7323 C   0  0  0  0  0  0  0  0  0  0  0  0
  146.4621  168.6236  133.8143 C   0  0  1  0  0  0  0  0  0  0  0  0
  145.0377  168.6272  133.3027 C   0  0  0  0  0  0  0  0  0  0  0  0
  144.9535  169.9801  132.6727 C   0  0  0  0  0  0  0  0  0  0  0  0
  146.0432  170.7676  133.1501 N   0  0  0  0  0  0  0  0  0  0  0  0
  145.5638  172.0589  133.5907 C   0  0  0  0  0  0  0  0  0  0  0  0
  144.8391  171.9312  134.8794 C   0  0  0  0  0  0  0  0  0  0  0  0
  145.3595  171.1609  135.8153 C   0  0  0  0  0  0  0  0  0  0  0  0
  146.6420  170.4577  135.5472 C   0  0  1  0  0  0  0  0  0  0  0  0
  147.7237  171.4881  135.9449 C   0  0  0  0  0  0  0  0  0  0  0  0
  147.1857  172.8493  135.5799 C   0  0  0  0  0  0  0  0  0  0  0  0
  146.7842  169.3641  136.5713 C   0  0  0  0  0  0  0  0  0  0  0  0
  147.4316  168.1098  136.0520 C   0  0  1  0  0  0  0  0  0  0  0  0
  147.3718  167.1766  137.1244 O   0  0  0  0  0  0  0  0  0  0  0  0
  148.4793  167.4093  137.9148 C   0  0  0  0  0  0  0  0  0  0  0  0
  148.6122  167.0999  139.1485 O   0  0  0  0  0  0  0  0  0  0  0  0
  149.4680  168.0635  137.1124 N   0  0  0  0  0  0  0  0  0  0  0  0
  150.7877  168.4852  137.5291 C   0  0  0  0  0  0  0  0  0  0  0  0
  150.9476  168.5621  139.0251 C   0  0  0  0  0  0  0  0  0  0  0  0
  152.0878  167.3027  139.6024 Cl  0  0  0  0  0  0  0  0  0  0  0  0
  148.8706  168.1989  135.8104 C   0  0  0  0  0  0  0  0  0  0  0  0
  149.5709  168.3542  134.7791 O   0  0  0  0  0  0  0  0  0  0  0  0
  146.7854  170.0439  134.1379 C   0  0  1  0  0  0  0  0  0  0  0  0
  148.9692  168.4486  129.3699 C   0  0  1  0  0  0  0  0  0  0  0  0
  150.0027  167.7088  128.6071 C   0  0  0  0  0  0  0  0  0  0  0  0
  149.8676  166.4187  128.0079 C   0  0  1  0  0  0  0  0  0  0  0  0
  148.6380  165.6060  128.0223 C   0  0  0  0  0  0  0  0  0  0  0  0
  147.6329  166.2648  127.2601 N   0  0  0  0  0  0  0  0  0  0  0  0
  147.8730  166.0772  125.8875 C   0  0  0  0  0  0  0  0  0  0  0  0
  149.2086  166.7120  125.5639 C   0  0  2  0  0  0  0  0  0  0  0  0
  148.9831  168.0594  125.2793 O   0  0  0  0  0  0  0  0  0  0  0  0
  149.6583  166.1062  124.2197 C   0  0  0  0  0  0  0  0  0  0  0  0
  150.1125  164.6753  124.4140 C   0  0  0  0  0  0  0  0  0  0  0  0
  150.3024  166.4543  126.5221 C   0  0  0  0  0  0  0  0  0  0  0  0
  146.3484  165.8751  127.7915 C   0  0  0  0  0  0  0  0  0  0  0  0
  146.0840  167.0307  128.8210 C   0  0  0  0  0  0  0  0  0  0  0  0
  146.6821  168.2722  128.2218 C   0  0  0  0  0  0  0  0  0  0  0  0
  147.8743  168.8120  128.4325 C   0  0  0  0  0  0  0  0  0  0  0  0
  147.9704  169.8984  127.5948 N   0  0  0  0  0  0  0  0  0  0  0  0
  146.8584  170.0503  126.8669 C   0  0  0  0  0  0  0  0  0  0  0  0
  146.4756  170.9702  125.9099 C   0  0  0  0  0  0  0  0  0  0  0  0
  145.2359  170.8964  125.2985 C   0  0  0  0  0  0  0  0  0  0  0  0
  144.3928  169.8746  125.6746 C   0  0  0  0  0  0  0  0  0  0  0  0
  144.7911  168.9680  126.6293 C   0  0  0  0  0  0  0  0  0  0  0  0
  146.0356  169.0353  127.2486 C   0  0  0  0  0  0  0  0  0  0  0  0
  149.7386  169.7016  129.8190 C   0  0  0  0  0  0  0  0  0  0  0  0
  149.2829  170.7982  129.4880 O   0  0  0  0  0  0  0  0  0  0  0  0
  150.8794  169.6066  130.5538 O   0  0  0  0  0  0  0  0  0  0  0  0
  151.6197  170.7330  131.0169 C   0  0  0  0  0  0  0  0  0  0  0  0
  1  2  1  6
  2  3  1  0
  2  4  1  0
  4  5  2  0
  5  6  1  0
  6  7  1  0
  7  8  1  0
  6  9  2  0
  9 10  1  0
 10 11  2  0
 11 12  1  0
 12 13  1  6
 13 14  1  0
 14 15  1  0
 15 16  1  0
 16 17  1  0
 17 18  2  0
 18 19  1  0
 19 20  1  1
 20 21  1  0
 19 22  1  0
 23 22  1  1
 23 24  1  0
 24 25  1  0
 25 26  2  0
 25 27  1  0
 27 28  1  0
 28 29  1  0
 29 30  1  0
 27 31  1  0
 31 32  2  0
 19 33  1  0
  9 34  1  0
 34 35  1  0
 36 35  1  6
 36 37  1  0
 37 38  1  0
 38 39  1  0
 39 40  1  0
 40 41  1  6
 40 42  1  0
 42 43  1  0
 40 44  1  0
 38 45  1  0
 45 46  1  0
 46 47  1  0
 47 48  2  0
 48 49  1  0
 49 50  1  0
 50 51  2  0
 51 52  1  0
 52 53  2  0
 53 54  1  0
 54 55  2  0
 34 56  1  1
 56 57  2  0
 56 58  1  0
 58 59  1  0
 12  1  1  0
 33 12  1  0
 48 34  1  0
 55 50  1  0
 23  1  1  0
 31 23  1  0
 44 36  1  0
 55 47  1  0
 11  4  1  0
 33 15  1  6
M  END
$$$$
