
     RDKit          3D

 59 68  0  0  0  0  0  0  0  0999 V2000
  126.7931  143.0833  135.1565 C   0  0  2  0  0  0  0  0  0  0  0  0
  127.2104  141.8649  135.8036 N   0  0  0  0  0  0  0  0  0  0  0  0
  126.7157  141.3702  137.0680 C   0  0  0  0  0  0  0  0  0  0  0  0
  128.1909  141.2575  134.9610 C   0  0  0  0  0  0  0  0  0  0  0  0
  129.0754  140.1948  135.2034 C   0  0  0  0  0  0  0  0  0  0  0  0
  129.9421  139.7733  134.2350 C   0  0  0  0  0  0  0  0  0  0  0  0
  130.8038  138.7109  134.5237 O   0  0  0  0  0  0  0  0  0  0  0  0
  130.8144  138.1067  135.7823 C   0  0  0  0  0  0  0  0  0  0  0  0
  129.9402  140.4037  133.0125 C   0  0  0  0  0  0  0  0  0  0  0  0
  129.0857  141.4222  132.7915 C   0  0  0  0  0  0  0  0  0  0  0  0
  128.1752  141.8940  133.7540 C   0  0  0  0  0  0  0  0  0  0  0  0
  127.1615  142.9747  133.7448 C   0  0  1  0  0  0  0  0  0  0  0  0
  125.9888  142.4754  132.9287 C   0  0  0  0  0  0  0  0  0  0  0  0
  126.3625  142.9418  131.5585 C   0  0  0  0  0  0  0  0  0  0  0  0
  127.3857  143.9282  131.6823 N   0  0  0  0  0  0  0  0  0  0  0  0
  127.0533  145.0876  130.8843 C   0  0  0  0  0  0  0  0  0  0  0  0
  125.9608  145.8618  131.5240 C   0  0  0  0  0  0  0  0  0  0  0  0
  126.0133  146.0567  132.8275 C   0  0  0  0  0  0  0  0  0  0  0  0
  127.1559  145.5002  133.5997 C   0  0  1  0  0  0  0  0  0  0  0  0
  128.2427  146.5952  133.5006 C   0  0  0  0  0  0  0  0  0  0  0  0
  128.3025  147.0220  132.0550 C   0  0  0  0  0  0  0  0  0  0  0  0
  126.7665  145.5016  135.0533 C   0  0  0  0  0  0  0  0  0  0  0  0
  127.2867  144.3266  135.8349 C   0  0  1  0  0  0  0  0  0  0  0  0
  126.7250  144.4539  137.1360 O   0  0  0  0  0  0  0  0  0  0  0  0
  127.5629  145.2870  137.8497 C   0  0  0  0  0  0  0  0  0  0  0  0
  127.2521  145.9770  138.8807 O   0  0  0  0  0  0  0  0  0  0  0  0
  128.8553  145.2496  137.2353 N   0  0  0  0  0  0  0  0  0  0  0  0
  130.0411  145.9626  137.6577 C   0  0  0  0  0  0  0  0  0  0  0  0
  130.6602  145.4050  138.9127 C   0  0  0  0  0  0  0  0  0  0  0  0
  129.5034  145.4982  140.2811 Cl  0  0  0  0  0  0  0  0  0  0  0  0
  128.7198  144.3477  136.1223 C   0  0  0  0  0  0  0  0  0  0  0  0
  129.7167  143.7757  135.6149 O   0  0  0  0  0  0  0  0  0  0  0  0
  127.6385  144.2132  133.0625 C   0  0  1  0  0  0  0  0  0  0  0  0
  130.8181  139.8830  131.9730 C   0  0  1  0  0  0  0  0  0  0  0  0
  132.2612  139.7569  132.2869 C   0  0  0  0  0  0  0  0  0  0  0  0
  132.8605  138.8595  133.2234 C   0  0  1  0  0  0  0  0  0  0  0  0
  132.1274  137.8649  134.0270 C   0  0  0  0  0  0  0  0  0  0  0  0
  131.5750  136.8795  133.1615 N   0  0  0  0  0  0  0  0  0  0  0  0
  132.5773  135.9793  132.7595 C   0  0  0  0  0  0  0  0  0  0  0  0
  133.6160  136.7637  131.9865 C   0  0  2  0  0  0  0  0  0  0  0  0
  133.2086  136.8126  130.6527 O   0  0  0  0  0  0  0  0  0  0  0  0
  134.8870  135.8917  131.9674 C   0  0  0  0  0  0  0  0  0  0  0  0
  135.3551  135.6141  133.3800 C   0  0  0  0  0  0  0  0  0  0  0  0
  134.0132  138.0641  132.5627 C   0  0  0  0  0  0  0  0  0  0  0  0
  130.3902  136.3496  133.7939 C   0  0  0  0  0  0  0  0  0  0  0  0
  129.2795  137.2704  133.1745 C   0  0  0  0  0  0  0  0  0  0  0  0
  129.7199  137.5736  131.7701 C   0  0  0  0  0  0  0  0  0  0  0  0
  130.3779  138.6279  131.3091 C   0  0  0  0  0  0  0  0  0  0  0  0
  130.6035  138.3998  129.9718 N   0  0  0  0  0  0  0  0  0  0  0  0
  130.0950  137.2238  129.5872 C   0  0  0  0  0  0  0  0  0  0  0  0
  130.0610  136.5618  128.3750 C   0  0  0  0  0  0  0  0  0  0  0  0
  129.4534  135.3244  128.2497 C   0  0  0  0  0  0  0  0  0  0  0  0
  128.8819  134.7714  129.3740 C   0  0  0  0  0  0  0  0  0  0  0  0
  128.9255  135.4452  130.5723 C   0  0  0  0  0  0  0  0  0  0  0  0
  129.5343  136.6895  130.7065 C   0  0  0  0  0  0  0  0  0  0  0  0
  130.8079  141.0561  130.9793 C   0  0  0  0  0  0  0  0  0  0  0  0
  130.0478  140.9758  130.0120 O   0  0  0  0  0  0  0  0  0  0  0  0
  131.6064  142.1426  131.1582 O   0  0  0  0  0  0  0  0  0  0  0  0
  131.7702  143.1739  130.1883 C   0  0  0  0  0  0  0  0  0  0  0  0
  1  2  1  1
  2  3  1  0
  2  4  1  0
  4  5  2  0
  5  6  1  0
  6  7  1  0
  7  8  1  0
  6  9  2  0
  9 10  1  0
 10 11  2  0
 11 12  1  0
 12 13  1  6
 13 14  1  0
 14 15  1  0
 15 16  1  0
 16 17  1  0
 17 18  2  0
 18 19  1  0
 19 20  1  1
 20 21  1  0
 19 22  1  0
 23 22  1  6
 23 24  1  0
 24 25  1  0
 25 26  2  0
 25 27  1  0
 27 28  1  0
 28 29  1  0
 29 30  1  0
 27 31  1  0
 31 32  2  0
 19 33  1  0
  9 34  1  0
 34 35  1  0
 36 35  1  6
 36 37  1  0
 37 38  1  0
 38 39  1  0
 39 40  1  0
 40 41  1  6
 40 42  1  0
 42 43  1  0
 40 44  1  0
 38 45  1  0
 45 46  1  0
 46 47  1  0
 47 48  2  0
 48 49  1  0
 49 50  1  0
 50 51  2  0
 51 52  1  0
 52 53  2  0
 53 54  1  0
 54 55  2  0
 34 56  1  6
 56 57  2  0
 56 58  1  0
 58 59  1  0
 12  1  1  0
 33 12  1  0
 48 34  1  0
 55 50  1  0
 23  1  1  0
 31 23  1  0
 44 36  1  0
 55 47  1  0
 11  4  1  0
 33 15  1  6
M  END
$$$$
