
     RDKit          3D

 59 68  0  0  0  0  0  0  0  0999 V2000
  155.1015  148.4175  124.2324 C   0  0  2  0  0  0  0  0  0  0  0  0
  153.7062  148.5872  124.5514 N   0  0  0  0  0  0  0  0  0  0  0  0
  153.0546  148.1233  125.7549 C   0  0  0  0  0  0  0  0  0  0  0  0
  153.1097  149.2915  123.4613 C   0  0  0  0  0  0  0  0  0  0  0  0
  151.7609  149.5214  123.1475 C   0  0  0  0  0  0  0  0  0  0  0  0
  151.4149  150.2341  122.0344 C   0  0  0  0  0  0  0  0  0  0  0  0
  150.0583  150.4368  121.7638 O   0  0  0  0  0  0  0  0  0  0  0  0
  149.0663  149.7964  122.5089 C   0  0  0  0  0  0  0  0  0  0  0  0
  152.4064  150.7275  121.2188 C   0  0  0  0  0  0  0  0  0  0  0  0
  153.6977  150.5010  121.5311 C   0  0  0  0  0  0  0  0  0  0  0  0
  154.1062  149.7740  122.6636 C   0  0  0  0  0  0  0  0  0  0  0  0
  155.4353  149.4014  123.2024 C   0  0  1  0  0  0  0  0  0  0  0  0
  156.0235  150.6464  123.8307 C   0  0  0  0  0  0  0  0  0  0  0  0
  156.7623  151.2399  122.6746 C   0  0  0  0  0  0  0  0  0  0  0  0
  156.9088  150.2365  121.6710 N   0  0  0  0  0  0  0  0  0  0  0  0
  158.2810  150.1883  121.2172 C   0  0  0  0  0  0  0  0  0  0  0  0
  159.1460  149.5596  122.2462 C   0  0  0  0  0  0  0  0  0  0  0  0
  158.7043  148.4775  122.8577 C   0  0  0  0  0  0  0  0  0  0  0  0
  157.3692  147.9322  122.4950 C   0  0  1  0  0  0  0  0  0  0  0  0
  157.6585  147.0040  121.2929 C   0  0  0  0  0  0  0  0  0  0  0  0
  159.0484  146.4525  121.4913 C   0  0  0  0  0  0  0  0  0  0  0  0
  156.9489  146.9908  123.5913 C   0  0  0  0  0  0  0  0  0  0  0  0
  155.4747  147.0060  123.8892 C   0  0  1  0  0  0  0  0  0  0  0  0
  155.3024  146.1468  125.0102 O   0  0  0  0  0  0  0  0  0  0  0  0
  155.1785  144.8653  124.5122 C   0  0  0  0  0  0  0  0  0  0  0  0
  155.4082  143.7778  125.1447 O   0  0  0  0  0  0  0  0  0  0  0  0
  154.7443  144.9577  123.1513 N   0  0  0  0  0  0  0  0  0  0  0  0
  154.4761  143.8611  122.2466 C   0  0  0  0  0  0  0  0  0  0  0  0
  155.5716  143.6353  121.2375 C   0  0  0  0  0  0  0  0  0  0  0  0
  157.1636  143.5035  122.0547 Cl  0  0  0  0  0  0  0  0  0  0  0  0
  154.6243  146.3670  122.8866 C   0  0  0  0  0  0  0  0  0  0  0  0
  153.9018  146.8014  121.9551 O   0  0  0  0  0  0  0  0  0  0  0  0
  156.3969  148.9843  122.1404 C   0  0  1  0  0  0  0  0  0  0  0  0
  152.0116  151.5504  120.0833 C   0  0  1  0  0  0  0  0  0  0  0  0
  150.7317  151.2284  119.4086 C   0  0  0  0  0  0  0  0  0  0  0  0
  149.4171  151.3692  119.9503 C   0  0  1  0  0  0  0  0  0  0  0  0
  149.1087  151.9017  121.2897 C   0  0  0  0  0  0  0  0  0  0  0  0
  149.4732  153.2762  121.3420 N   0  0  0  0  0  0  0  0  0  0  0  0
  148.5020  154.0544  120.6878 C   0  0  0  0  0  0  0  0  0  0  0  0
  148.4708  153.6250  119.2365 C   0  0  2  0  0  0  0  0  0  0  0  0
  149.4370  154.3631  118.5519 O   0  0  0  0  0  0  0  0  0  0  0  0
  147.1295  154.1286  118.6678 C   0  0  0  0  0  0  0  0  0  0  0  0
  145.9827  153.6729  119.5448 C   0  0  0  0  0  0  0  0  0  0  0  0
  148.5078  152.1701  118.9859 C   0  0  0  0  0  0  0  0  0  0  0  0
  149.7996  153.5954  122.7117 C   0  0  0  0  0  0  0  0  0  0  0  0
  151.3519  153.3598  122.7153 C   0  0  0  0  0  0  0  0  0  0  0  0
  151.8426  153.7713  121.3558 C   0  0  0  0  0  0  0  0  0  0  0  0
  152.0698  153.0219  120.2864 C   0  0  0  0  0  0  0  0  0  0  0  0
  152.4388  153.8774  119.2748 N   0  0  0  0  0  0  0  0  0  0  0  0
  152.4504  155.1478  119.6933 C   0  0  0  0  0  0  0  0  0  0  0  0
  152.7487  156.3439  119.0695 C   0  0  0  0  0  0  0  0  0  0  0  0
  152.6803  157.5462  119.7521 C   0  0  0  0  0  0  0  0  0  0  0  0
  152.3046  157.5136  121.0766 C   0  0  0  0  0  0  0  0  0  0  0  0
  152.0114  156.3134  121.6809 C   0  0  0  0  0  0  0  0  0  0  0  0
  152.0778  155.1005  121.0016 C   0  0  0  0  0  0  0  0  0  0  0  0
  153.0461  151.1048  119.0369 C   0  0  0  0  0  0  0  0  0  0  0  0
  154.1873  150.8596  119.4335 O   0  0  0  0  0  0  0  0  0  0  0  0
  152.7171  150.9848  117.7225 O   0  0  0  0  0  0  0  0  0  0  0  0
  153.1361  151.9007  116.7140 C   0  0  0  0  0  0  0  0  0  0  0  0
  1  2  1  6
  2  3  1  0
  2  4  1  0
  4  5  2  0
  5  6  1  0
  6  7  1  0
  7  8  1  0
  6  9  2  0
  9 10  1  0
 10 11  2  0
 11 12  1  0
 12 13  1  1
 13 14  1  0
 14 15  1  0
 15 16  1  0
 16 17  1  0
 17 18  2  0
 18 19  1  0
 19 20  1  6
 20 21  1  0
 19 22  1  0
 23 22  1  6
 23 24  1  0
 24 25  1  0
 25 26  2  0
 25 27  1  0
 27 28  1  0
 28 29  1  0
 29 30  1  0
 27 31  1  0
 31 32  2  0
 19 33  1  0
  9 34  1  0
 34 35  1  0
 36 35  1  6
 36 37  1  0
 37 38  1  0
 38 39  1  0
 39 40  1  0
 40 41  1  6
 40 42  1  0
 42 43  1  0
 40 44  1  0
 38 45  1  0
 45 46  1  0
 46 47  1  0
 47 48  2  0
 48 49  1  0
 49 50  1  0
 50 51  2  0
 51 52  1  0
 52 53  2  0
 53 54  1  0
 54 55  2  0
 34 56  1  6
 56 57  2  0
 56 58  1  0
 58 59  1  0
 12  1  1  0
 33 12  1  0
 48 34  1  0
 55 50  1  0
 23  1  1  0
 31 23  1  0
 44 36  1  0
 55 47  1  0
 11  4  1  0
 33 15  1  1
M  END
$$$$
