
     RDKit          3D

 59 68  0  0  0  0  0  0  0  0999 V2000
  173.0833  147.3911  124.9530 C   0  0  2  0  0  0  0  0  0  0  0  0
  172.2116  147.3097  126.0980 N   0  0  0  0  0  0  0  0  0  0  0  0
  172.5590  147.6844  127.4497 C   0  0  0  0  0  0  0  0  0  0  0  0
  170.9615  146.7949  125.6372 C   0  0  0  0  0  0  0  0  0  0  0  0
  169.8515  146.3121  126.3481 C   0  0  0  0  0  0  0  0  0  0  0  0
  168.7430  145.8610  125.6892 C   0  0  0  0  0  0  0  0  0  0  0  0
  167.6625  145.3897  126.4409 O   0  0  0  0  0  0  0  0  0  0  0  0
  167.6749  145.4348  127.8363 C   0  0  0  0  0  0  0  0  0  0  0  0
  168.7241  145.8843  124.3141 C   0  0  0  0  0  0  0  0  0  0  0  0
  169.7955  146.3510  123.6427 C   0  0  0  0  0  0  0  0  0  0  0  0
  170.9598  146.8256  124.2729 C   0  0  0  0  0  0  0  0  0  0  0  0
  172.2372  147.3737  123.7597 C   0  0  1  0  0  0  0  0  0  0  0  0
  171.9568  148.7845  123.2891 C   0  0  0  0  0  0  0  0  0  0  0  0
  171.5900  148.5516  121.8589 C   0  0  0  0  0  0  0  0  0  0  0  0
  172.0246  147.2438  121.4900 N   0  0  0  0  0  0  0  0  0  0  0  0
  172.7492  147.2983  120.2396 C   0  0  0  0  0  0  0  0  0  0  0  0
  174.0915  147.8972  120.4436 C   0  0  0  0  0  0  0  0  0  0  0  0
  174.7903  147.5208  121.4972 C   0  0  0  0  0  0  0  0  0  0  0  0
  174.2128  146.5181  122.4313 C   0  0  1  0  0  0  0  0  0  0  0  0
  174.6129  145.1583  121.8143 C   0  0  0  0  0  0  0  0  0  0  0  0
  175.6052  145.4516  120.7166 C   0  0  0  0  0  0  0  0  0  0  0  0
  174.9990  146.5841  123.7127 C   0  0  0  0  0  0  0  0  0  0  0  0
  174.1788  146.3665  124.9545 C   0  0  1  0  0  0  0  0  0  0  0  0
  175.0704  146.5760  126.0433 O   0  0  0  0  0  0  0  0  0  0  0  0
  175.7112  145.3742  126.2679 C   0  0  0  0  0  0  0  0  0  0  0  0
  176.8382  145.2099  126.8495 O   0  0  0  0  0  0  0  0  0  0  0  0
  174.8928  144.3280  125.7342 N   0  0  0  0  0  0  0  0  0  0  0  0
  175.1701  142.9083  125.7566 C   0  0  0  0  0  0  0  0  0  0  0  0
  175.4720  142.3353  124.3965 C   0  0  0  0  0  0  0  0  0  0  0  0
  177.0779  142.8913  123.8208 Cl  0  0  0  0  0  0  0  0  0  0  0  0
  173.7400  144.9913  125.1850 C   0  0  0  0  0  0  0  0  0  0  0  0
  172.6565  144.3823  125.0021 O   0  0  0  0  0  0  0  0  0  0  0  0
  172.7481  146.6372  122.5665 C   0  0  1  0  0  0  0  0  0  0  0  0
  167.5003  145.4721  123.6397 C   0  0  1  0  0  0  0  0  0  0  0  0
  167.4605  145.5681  122.1611 C   0  0  0  0  0  0  0  0  0  0  0  0
  168.2183  144.7931  121.2302 C   0  0  1  0  0  0  0  0  0  0  0  0
  169.1630  143.7222  121.5954 C   0  0  0  0  0  0  0  0  0  0  0  0
  168.4437  142.6444  122.1836 N   0  0  0  0  0  0  0  0  0  0  0  0
  167.8055  141.8916  121.1822 C   0  0  0  0  0  0  0  0  0  0  0  0
  166.8156  142.8004  120.4851 C   0  0  2  0  0  0  0  0  0  0  0  0
  165.6177  142.7546  121.1993 O   0  0  0  0  0  0  0  0  0  0  0  0
  166.4858  142.1250  119.1393 C   0  0  0  0  0  0  0  0  0  0  0  0
  167.7595  141.7983  118.3892 C   0  0  0  0  0  0  0  0  0  0  0  0
  167.2941  144.1595  120.1613 C   0  0  0  0  0  0  0  0  0  0  0  0
  169.3343  141.9621  123.0923 C   0  0  0  0  0  0  0  0  0  0  0  0
  169.0065  142.6930  124.4426 C   0  0  0  0  0  0  0  0  0  0  0  0
  167.5408  143.0217  124.3975 C   0  0  0  0  0  0  0  0  0  0  0  0
  166.9474  144.1493  124.0322 C   0  0  0  0  0  0  0  0  0  0  0  0
  165.5925  143.9227  124.0983 N   0  0  0  0  0  0  0  0  0  0  0  0
  165.3279  142.6752  124.5021 C   0  0  0  0  0  0  0  0  0  0  0  0
  164.1518  141.9845  124.7230 C   0  0  0  0  0  0  0  0  0  0  0  0
  164.1620  140.6683  125.1514 C   0  0  0  0  0  0  0  0  0  0  0  0
  165.3842  140.0661  125.3514 C   0  0  0  0  0  0  0  0  0  0  0  0
  166.5446  140.7695  125.1263 C   0  0  0  0  0  0  0  0  0  0  0  0
  166.5429  142.0929  124.6956 C   0  0  0  0  0  0  0  0  0  0  0  0
  166.5497  146.6050  124.0598 C   0  0  0  0  0  0  0  0  0  0  0  0
  165.3409  146.3625  124.0608 O   0  0  0  0  0  0  0  0  0  0  0  0
  167.0218  147.8296  124.4171 O   0  0  0  0  0  0  0  0  0  0  0  0
  166.5749  149.0517  123.8357 C   0  0  0  0  0  0  0  0  0  0  0  0
  1  2  1  1
  2  3  1  0
  2  4  1  0
  4  5  2  0
  5  6  1  0
  6  7  1  0
  7  8  1  0
  6  9  2  0
  9 10  1  0
 10 11  2  0
 11 12  1  0
 12 13  1  6
 13 14  1  0
 14 15  1  0
 15 16  1  0
 16 17  1  0
 17 18  2  0
 18 19  1  0
 19 20  1  6
 20 21  1  0
 19 22  1  0
 23 22  1  6
 23 24  1  0
 24 25  1  0
 25 26  2  0
 25 27  1  0
 27 28  1  0
 28 29  1  0
 29 30  1  0
 27 31  1  0
 31 32  2  0
 19 33  1  0
  9 34  1  0
 34 35  1  0
 36 35  1  1
 36 37  1  0
 37 38  1  0
 38 39  1  0
 39 40  1  0
 40 41  1  1
 40 42  1  0
 42 43  1  0
 40 44  1  0
 38 45  1  0
 45 46  1  0
 46 47  1  0
 47 48  2  0
 48 49  1  0
 49 50  1  0
 50 51  2  0
 51 52  1  0
 52 53  2  0
 53 54  1  0
 54 55  2  0
 34 56  1  1
 56 57  2  0
 56 58  1  0
 58 59  1  0
 12  1  1  0
 33 12  1  0
 48 34  1  0
 55 50  1  0
 23  1  1  0
 31 23  1  0
 44 36  1  0
 55 47  1  0
 11  4  1  0
 33 15  1  6
M  END
$$$$
