
     RDKit          3D

 59 68  0  0  0  0  0  0  0  0999 V2000
  204.5816  134.6115  131.7936 C   0  0  2  0  0  0  0  0  0  0  0  0
  203.5725  134.0123  132.6303 N   0  0  0  0  0  0  0  0  0  0  0  0
  202.2411  134.5304  132.8470 C   0  0  0  0  0  0  0  0  0  0  0  0
  204.1417  132.8282  133.1906 C   0  0  0  0  0  0  0  0  0  0  0  0
  203.6915  131.9981  134.2292 C   0  0  0  0  0  0  0  0  0  0  0  0
  204.4099  130.8986  134.6054 C   0  0  0  0  0  0  0  0  0  0  0  0
  203.9207  130.1024  135.6452 O   0  0  0  0  0  0  0  0  0  0  0  0
  202.5534  130.0232  135.9167 C   0  0  0  0  0  0  0  0  0  0  0  0
  205.5860  130.6103  133.9530 C   0  0  0  0  0  0  0  0  0  0  0  0
  206.0074  131.4143  132.9568 C   0  0  0  0  0  0  0  0  0  0  0  0
  205.3059  132.5569  132.5322 C   0  0  0  0  0  0  0  0  0  0  0  0
  205.5643  133.5726  131.4848 C   0  0  1  0  0  0  0  0  0  0  0  0
  205.2497  132.9256  130.1532 C   0  0  0  0  0  0  0  0  0  0  0  0
  206.5772  132.3449  129.7859 C   0  0  0  0  0  0  0  0  0  0  0  0
  207.5768  132.9569  130.5993 N   0  0  0  0  0  0  0  0  0  0  0  0
  208.6803  133.4000  129.7763 C   0  0  0  0  0  0  0  0  0  0  0  0
  208.2976  134.6060  129.0009 C   0  0  0  0  0  0  0  0  0  0  0  0
  207.6218  135.5566  129.6170 C   0  0  0  0  0  0  0  0  0  0  0  0
  207.2737  135.3865  131.0527 C   0  0  1  0  0  0  0  0  0  0  0  0
  208.5114  135.9282  131.8042 C   0  0  0  0  0  0  0  0  0  0  0  0
  209.0319  134.7996  132.6592 C   0  0  0  0  0  0  0  0  0  0  0  0
  206.1867  136.3752  131.3777 C   0  0  0  0  0  0  0  0  0  0  0  0
  205.1652  135.8717  132.3602 C   0  0  1  0  0  0  0  0  0  0  0  0
  204.1805  136.8951  132.4462 O   0  0  0  0  0  0  0  0  0  0  0  0
  204.6283  137.7980  133.3895 C   0  0  0  0  0  0  0  0  0  0  0  0
  204.2842  139.0255  133.4912 O   0  0  0  0  0  0  0  0  0  0  0  0
  205.5545  137.1222  134.2465 N   0  0  0  0  0  0  0  0  0  0  0  0
  206.2607  137.6815  135.3785 C   0  0  0  0  0  0  0  0  0  0  0  0
  207.2465  138.7554  134.9985 C   0  0  0  0  0  0  0  0  0  0  0  0
  208.5577  138.8672  136.2183 Cl  0  0  0  0  0  0  0  0  0  0  0  0
  205.6203  135.7747  133.7459 C   0  0  0  0  0  0  0  0  0  0  0  0
  206.0075  134.8233  134.4692 O   0  0  0  0  0  0  0  0  0  0  0  0
  206.9973  133.9825  131.4133 C   0  0  1  0  0  0  0  0  0  0  0  0
  206.2906  129.3894  134.3205 C   0  0  1  0  0  0  0  0  0  0  0  0
  205.5523  128.3779  135.1137 C   0  0  0  0  0  0  0  0  0  0  0  0
  204.4420  127.5903  134.6796 C   0  0  1  0  0  0  0  0  0  0  0  0
  203.8549  127.6318  133.3282 C   0  0  0  0  0  0  0  0  0  0  0  0
  204.8042  127.1374  132.3904 N   0  0  0  0  0  0  0  0  0  0  0  0
  204.8480  125.7333  132.4485 C   0  0  0  0  0  0  0  0  0  0  0  0
  205.3052  125.3452  133.8384 C   0  0  2  0  0  0  0  0  0  0  0  0
  206.7005  125.3291  133.8398 O   0  0  0  0  0  0  0  0  0  0  0  0
  204.9045  123.8686  134.0263 C   0  0  0  0  0  0  0  0  0  0  0  0
  203.3980  123.7244  133.9915 C   0  0  0  0  0  0  0  0  0  0  0  0
  204.6916  126.0875  134.9579 C   0  0  0  0  0  0  0  0  0  0  0  0
  204.5356  127.7634  131.1175 C   0  0  0  0  0  0  0  0  0  0  0  0
  205.4984  129.0020  131.1806 C   0  0  0  0  0  0  0  0  0  0  0  0
  206.7169  128.5491  131.9346 C   0  0  0  0  0  0  0  0  0  0  0  0
  207.0026  128.6855  133.2218 C   0  0  0  0  0  0  0  0  0  0  0  0
  208.1994  128.0413  133.4318 N   0  0  0  0  0  0  0  0  0  0  0  0
  208.6693  127.5080  132.2986 C   0  0  0  0  0  0  0  0  0  0  0  0
  209.8066  126.7837  131.9974 C   0  0  0  0  0  0  0  0  0  0  0  0
  210.0566  126.3427  130.7093 C   0  0  0  0  0  0  0  0  0  0  0  0
  209.1340  126.6489  129.7339 C   0  0  0  0  0  0  0  0  0  0  0  0
  208.0075  127.3710  130.0525 C   0  0  0  0  0  0  0  0  0  0  0  0
  207.7489  127.8180  131.3449 C   0  0  0  0  0  0  0  0  0  0  0  0
  207.2898  129.9381  135.3521 C   0  0  0  0  0  0  0  0  0  0  0  0
  208.4128  129.4304  135.3823 O   0  0  0  0  0  0  0  0  0  0  0  0
  206.9501  130.9455  136.2006 O   0  0  0  0  0  0  0  0  0  0  0  0
  207.8351  131.4943  137.1736 C   0  0  0  0  0  0  0  0  0  0  0  0
  1  2  1  1
  2  3  1  0
  2  4  1  0
  4  5  2  0
  5  6  1  0
  6  7  1  0
  7  8  1  0
  6  9  2  0
  9 10  1  0
 10 11  2  0
 11 12  1  0
 12 13  1  6
 13 14  1  0
 14 15  1  0
 15 16  1  0
 16 17  1  0
 17 18  2  0
 18 19  1  0
 19 20  1  1
 20 21  1  0
 19 22  1  0
 23 22  1  6
 23 24  1  0
 24 25  1  0
 25 26  2  0
 25 27  1  0
 27 28  1  0
 28 29  1  0
 29 30  1  0
 27 31  1  0
 31 32  2  0
 19 33  1  0
  9 34  1  0
 34 35  1  0
 36 35  1  6
 36 37  1  0
 37 38  1  0
 38 39  1  0
 39 40  1  0
 40 41  1  6
 40 42  1  0
 42 43  1  0
 40 44  1  0
 38 45  1  0
 45 46  1  0
 46 47  1  0
 47 48  2  0
 48 49  1  0
 49 50  1  0
 50 51  2  0
 51 52  1  0
 52 53  2  0
 53 54  1  0
 54 55  2  0
 34 56  1  1
 56 57  2  0
 56 58  1  0
 58 59  1  0
 12  1  1  0
 33 12  1  0
 48 34  1  0
 55 50  1  0
 23  1  1  0
 31 23  1  0
 44 36  1  0
 55 47  1  0
 11  4  1  0
 33 15  1  6
M  END
$$$$
