
     RDKit          3D

 59 68  0  0  0  0  0  0  0  0999 V2000
  129.7943  140.0957  135.4575 C   0  0  2  0  0  0  0  0  0  0  0  0
  131.2299  139.9707  135.4290 N   0  0  0  0  0  0  0  0  0  0  0  0
  132.1304  140.3552  136.4918 C   0  0  0  0  0  0  0  0  0  0  0  0
  131.5760  139.4021  134.1653 C   0  0  0  0  0  0  0  0  0  0  0  0
  132.8204  139.2731  133.5287 C   0  0  0  0  0  0  0  0  0  0  0  0
  132.9179  138.6852  132.2993 C   0  0  0  0  0  0  0  0  0  0  0  0
  134.1792  138.5796  131.7055 O   0  0  0  0  0  0  0  0  0  0  0  0
  135.3036  138.2173  132.4499 C   0  0  0  0  0  0  0  0  0  0  0  0
  131.7785  138.2178  131.6869 C   0  0  0  0  0  0  0  0  0  0  0  0
  130.5896  138.3465  132.3086 C   0  0  0  0  0  0  0  0  0  0  0  0
  130.4355  138.9436  133.5725 C   0  0  0  0  0  0  0  0  0  0  0  0
  129.2585  139.1948  134.4369 C   0  0  1  0  0  0  0  0  0  0  0  0
  128.8702  137.8681  135.0532 C   0  0  0  0  0  0  0  0  0  0  0  0
  127.8999  137.3459  134.0433 C   0  0  0  0  0  0  0  0  0  0  0  0
  127.4936  138.4284  133.2075 N   0  0  0  0  0  0  0  0  0  0  0  0
  126.0525  138.4463  133.0879 C   0  0  0  0  0  0  0  0  0  0  0  0
  125.4334  138.9312  134.3464 C   0  0  0  0  0  0  0  0  0  0  0  0
  125.9735  139.9740  134.9472 C   0  0  0  0  0  0  0  0  0  0  0  0
  127.1703  140.6196  134.3453 C   0  0  1  0  0  0  0  0  0  0  0  0
  126.5811  141.6382  133.3426 C   0  0  0  0  0  0  0  0  0  0  0  0
  125.1722  141.9316  133.7948 C   0  0  0  0  0  0  0  0  0  0  0  0
  127.8068  141.4767  135.4060 C   0  0  0  0  0  0  0  0  0  0  0  0
  129.3096  141.5114  135.3547 C   0  0  1  0  0  0  0  0  0  0  0  0
  129.7134  142.2714  136.4877 O   0  0  0  0  0  0  0  0  0  0  0  0
  129.6796  143.5981  136.1077 C   0  0  0  0  0  0  0  0  0  0  0  0
  129.5719  144.6091  136.8834 O   0  0  0  0  0  0  0  0  0  0  0  0
  129.7867  143.6544  134.6814 N   0  0  0  0  0  0  0  0  0  0  0  0
  129.8037  144.8423  133.8558 C   0  0  0  0  0  0  0  0  0  0  0  0
  128.9684  144.7170  132.6084 C   0  0  0  0  0  0  0  0  0  0  0  0
  129.1632  146.1683  131.5714 Cl  0  0  0  0  0  0  0  0  0  0  0  0
  129.8833  142.2838  134.2541 C   0  0  0  0  0  0  0  0  0  0  0  0
  130.3809  141.9755  133.1425 O   0  0  0  0  0  0  0  0  0  0  0  0
  128.0636  139.6571  133.6720 C   0  0  1  0  0  0  0  0  0  0  0  0
  131.9215  137.5249  130.4135 C   0  0  1  0  0  0  0  0  0  0  0  0
  132.6657  136.2430  130.4043 C   0  0  0  0  0  0  0  0  0  0  0  0
  132.2649  135.0138  131.0126 C   0  0  1  0  0  0  0  0  0  0  0  0
  130.9995  134.8047  131.7388 C   0  0  0  0  0  0  0  0  0  0  0  0
  129.9127  134.9172  130.8271 N   0  0  0  0  0  0  0  0  0  0  0  0
  129.8003  133.7388  130.0684 C   0  0  0  0  0  0  0  0  0  0  0  0
  131.0773  133.5829  129.2703 C   0  0  2  0  0  0  0  0  0  0  0  0
  130.9255  134.2933  128.0789 O   0  0  0  0  0  0  0  0  0  0  0  0
  131.1326  132.1062  128.8318 C   0  0  0  0  0  0  0  0  0  0  0  0
  131.7176  131.2517  129.9360 C   0  0  0  0  0  0  0  0  0  0  0  0
  132.3360  133.8481  129.9955 C   0  0  0  0  0  0  0  0  0  0  0  0
  128.7588  135.3689  131.5679 C   0  0  0  0  0  0  0  0  0  0  0  0
  128.8623  136.9231  131.3705 C   0  0  0  0  0  0  0  0  0  0  0  0
  129.4213  137.1353  129.9918 C   0  0  0  0  0  0  0  0  0  0  0  0
  130.6769  137.3427  129.6212 C   0  0  0  0  0  0  0  0  0  0  0  0
  130.6789  137.4046  128.2473 N   0  0  0  0  0  0  0  0  0  0  0  0
  129.4466  137.2438  127.7522 C   0  0  0  0  0  0  0  0  0  0  0  0
  128.9409  137.2293  126.4666 C   0  0  0  0  0  0  0  0  0  0  0  0
  127.5905  137.0401  126.2286 C   0  0  0  0  0  0  0  0  0  0  0  0
  126.7636  136.8661  127.3160 C   0  0  0  0  0  0  0  0  0  0  0  0
  127.2850  136.8834  128.5886 C   0  0  0  0  0  0  0  0  0  0  0  0
  128.6414  137.0732  128.8363 C   0  0  0  0  0  0  0  0  0  0  0  0
  132.8959  138.4659  129.6864 C   0  0  0  0  0  0  0  0  0  0  0  0
  133.9424  138.7609  130.2675 O   0  0  0  0  0  0  0  0  0  0  0  0
  132.6163  138.9560  128.4487 O   0  0  0  0  0  0  0  0  0  0  0  0
  133.4359  139.9024  127.7675 C   0  0  0  0  0  0  0  0  0  0  0  0
  1  2  1  6
  2  3  1  0
  2  4  1  0
  4  5  2  0
  5  6  1  0
  6  7  1  0
  7  8  1  0
  6  9  2  0
  9 10  1  0
 10 11  2  0
 11 12  1  0
 12 13  1  1
 13 14  1  0
 14 15  1  0
 15 16  1  0
 16 17  1  0
 17 18  2  0
 18 19  1  0
 19 20  1  6
 20 21  1  0
 19 22  1  0
 23 22  1  6
 23 24  1  0
 24 25  1  0
 25 26  2  0
 25 27  1  0
 27 28  1  0
 28 29  1  0
 29 30  1  0
 27 31  1  0
 31 32  2  0
 19 33  1  0
  9 34  1  0
 34 35  1  0
 36 35  1  6
 36 37  1  0
 37 38  1  0
 38 39  1  0
 39 40  1  0
 40 41  1  6
 40 42  1  0
 42 43  1  0
 40 44  1  0
 38 45  1  0
 45 46  1  0
 46 47  1  0
 47 48  2  0
 48 49  1  0
 49 50  1  0
 50 51  2  0
 51 52  1  0
 52 53  2  0
 53 54  1  0
 54 55  2  0
 34 56  1  6
 56 57  2  0
 56 58  1  0
 58 59  1  0
 12  1  1  0
 33 12  1  0
 48 34  1  0
 55 50  1  0
 23  1  1  0
 31 23  1  0
 44 36  1  0
 55 47  1  0
 11  4  1  0
 33 15  1  1
M  END
$$$$
