
     RDKit          3D

 56 62  0  0  0  0  0  0  0  0999 V2000
  124.5743  162.6820  148.7629 C   0  0  2  0  0  0  0  0  0  0  0  0
  124.6997  161.6096  149.8267 C   0  0  0  0  0  0  0  0  0  0  0  0
  126.1474  161.2964  150.0428 C   0  0  0  0  0  0  0  0  0  0  0  0
  127.0400  162.5244  150.0633 C   0  0  2  0  0  0  0  0  0  0  0  0
  126.0650  163.6714  150.4034 C   0  0  0  0  0  0  0  0  0  0  0  0
  125.3512  163.8898  149.0586 C   0  0  1  0  0  0  0  0  0  0  0  0
  126.5959  163.9781  148.1717 C   0  0  0  0  0  0  0  0  0  0  0  0
  127.5252  162.9271  148.7473 C   0  0  0  0  0  0  0  0  0  0  0  0
  128.5781  162.5227  148.0381 C   0  0  0  0  0  0  0  0  0  0  0  0
  124.6797  165.1956  149.1689 C   0  0  0  0  0  0  0  0  0  0  0  0
  123.2893  165.3342  148.6322 C   0  0  0  0  0  0  0  0  0  0  0  0
  123.0704  164.2001  147.6561 C   0  0  2  0  0  0  0  0  0  0  0  0
  122.0562  164.4224  146.6231 C   0  0  1  0  0  0  0  0  0  0  0  0
  122.6637  165.4860  145.6654 C   0  0  0  0  0  0  0  0  0  0  0  0
  121.9061  163.1712  145.7665 C   0  0  0  0  0  0  0  0  0  0  0  0
  122.7950  162.0507  146.1854 C   0  0  0  0  0  0  0  0  0  0  0  0
  122.5383  161.8169  147.6669 C   0  0  0  0  0  0  0  0  0  0  0  0
  123.0832  162.9718  148.4749 C   0  0  1  0  0  0  0  0  0  0  0  0
  122.3660  163.0232  149.7881 C   0  0  0  0  0  0  0  0  0  0  0  0
  120.7471  164.9239  146.9769 C   0  0  0  0  0  0  0  0  0  0  0  0
  119.7682  164.1606  147.1274 O   0  0  0  0  0  0  0  0  0  0  0  0
  120.5436  166.2699  147.1637 O   0  0  0  0  0  0  0  0  0  0  0  0
  121.5035  167.1479  147.7150 C   0  0  2  0  0  0  0  0  0  0  0  0
  121.3227  167.1953  149.0753 O   0  0  0  0  0  0  0  0  0  0  0  0
  122.3063  167.9192  149.7028 C   0  0  2  0  0  0  0  0  0  0  0  0
  121.9148  168.0832  151.1606 C   0  0  0  0  0  0  0  0  0  0  0  0
  122.6581  167.2228  151.9401 O   0  0  0  0  0  0  0  0  0  0  0  0
  122.5306  169.2575  149.0782 C   0  0  1  0  0  0  0  0  0  0  0  0
  123.7087  169.2852  148.3235 O   0  0  0  0  0  0  0  0  0  0  0  0
  121.3883  169.5955  148.1683 C   0  0  2  0  0  0  0  0  0  0  0  0
  120.1845  169.7408  148.8642 O   0  0  0  0  0  0  0  0  0  0  0  0
  121.2065  168.5259  147.1308 C   0  0  1  0  0  0  0  0  0  0  0  0
  121.9496  168.7737  145.9784 O   0  0  0  0  0  0  0  0  0  0  0  0
  127.9260  162.5258  151.0969 O   0  0  0  0  0  0  0  0  0  0  0  0
  129.2547  162.3383  150.8153 C   0  0  2  0  0  0  0  0  0  0  0  0
  129.4872  160.9689  150.9714 O   0  0  0  0  0  0  0  0  0  0  0  0
  130.2817  160.6246  152.0252 C   0  0  2  0  0  0  0  0  0  0  0  0
  130.0919  159.1107  152.2333 C   0  0  0  0  0  0  0  0  0  0  0  0
  128.7870  158.8189  152.6130 O   0  0  0  0  0  0  0  0  0  0  0  0
  129.8360  161.2655  153.3018 C   0  0  1  0  0  0  0  0  0  0  0  0
  130.6890  160.8990  154.3422 O   0  0  0  0  0  0  0  0  0  0  0  0
  129.6281  162.7393  153.1987 C   0  0  2  0  0  0  0  0  0  0  0  0
  128.2590  163.0728  153.3183 O   0  0  0  0  0  0  0  0  0  0  0  0
  130.0372  163.1755  151.8096 C   0  0  1  0  0  0  0  0  0  0  0  0
  131.4019  163.0355  151.6631 O   0  0  0  0  0  0  0  0  0  0  0  0
  132.1387  164.1725  151.9137 C   0  0  2  0  0  0  0  0  0  0  0  0
  131.8261  165.0707  150.8937 O   0  0  0  0  0  0  0  0  0  0  0  0
  132.2264  166.3615  151.1244 C   0  0  2  0  0  0  0  0  0  0  0  0
  131.9171  167.1366  149.8347 C   0  0  0  0  0  0  0  0  0  0  0  0
  130.5361  167.2115  149.7231 O   0  0  0  0  0  0  0  0  0  0  0  0
  133.6974  166.4143  151.3848 C   0  0  1  0  0  0  0  0  0  0  0  0
  133.9312  166.8389  152.6906 O   0  0  0  0  0  0  0  0  0  0  0  0
  134.3324  165.0833  151.1245 C   0  0  2  0  0  0  0  0  0  0  0  0
  134.4336  164.7706  149.7903 O   0  0  0  0  0  0  0  0  0  0  0  0
  133.6302  163.9537  151.8459 C   0  0  1  0  0  0  0  0  0  0  0  0
  134.0981  163.9432  153.1601 O   0  0  0  0  0  0  0  0  0  0  0  0
  1  2  1  1
  2  3  1  0
  3  4  1  0
  4  5  1  0
  5  6  1  0
  6  7  1  6
  7  8  1  0
  8  9  2  0
  6 10  1  0
 10 11  1  0
 12 11  1  1
 12 13  1  0
 13 14  1  6
 13 15  1  0
 15 16  1  0
 16 17  1  0
 17 18  1  0
 18 19  1  1
 13 20  1  0
 20 21  2  0
 20 22  1  0
 23 22  1  6
 23 24  1  0
 24 25  1  0
 25 26  1  1
 26 27  1  0
 25 28  1  0
 28 29  1  6
 28 30  1  0
 30 31  1  1
 30 32  1  0
 32 33  1  6
  4 34  1  1
 35 34  1  1
 35 36  1  0
 36 37  1  0
 37 38  1  1
 38 39  1  0
 37 40  1  0
 40 41  1  1
 40 42  1  0
 42 43  1  6
 42 44  1  0
 44 45  1  1
 46 45  1  6
 46 47  1  0
 47 48  1  0
 48 49  1  6
 49 50  1  0
 48 51  1  0
 51 52  1  1
 51 53  1  0
 53 54  1  6
 53 55  1  0
 55 56  1  1
  6  1  1  0
 18 12  1  0
 32 23  1  0
 44 35  1  0
 55 46  1  0
 18  1  1  0
  8  4  1  0
M  END
$$$$
