
     RDKit          3D

 56 62  0  0  0  0  0  0  0  0999 V2000
  205.6798  133.6220  135.2114 C   0  0  2  0  0  0  0  0  0  0  0  0
  205.3113  132.5128  136.1765 C   0  0  0  0  0  0  0  0  0  0  0  0
  204.1553  131.7405  135.6217 C   0  0  0  0  0  0  0  0  0  0  0  0
  204.2592  131.4753  134.1304 C   0  0  2  0  0  0  0  0  0  0  0  0
  205.7692  131.6181  133.8446 C   0  0  0  0  0  0  0  0  0  0  0  0
  205.9500  133.1454  133.8514 C   0  0  1  0  0  0  0  0  0  0  0  0
  204.8008  133.4975  132.9032 C   0  0  0  0  0  0  0  0  0  0  0  0
  203.6978  132.5349  133.2988 C   0  0  0  0  0  0  0  0  0  0  0  0
  202.4515  132.7588  132.8847 C   0  0  0  0  0  0  0  0  0  0  0  0
  207.2576  133.3968  133.2230 C   0  0  0  0  0  0  0  0  0  0  0  0
  208.1565  134.4298  133.8273 C   0  0  0  0  0  0  0  0  0  0  0  0
  207.2942  135.3276  134.6858 C   0  0  2  0  0  0  0  0  0  0  0  0
  207.8013  136.6818  134.9185 C   0  0  1  0  0  0  0  0  0  0  0  0
  207.6735  137.4144  133.5530 C   0  0  0  0  0  0  0  0  0  0  0  0
  206.8600  137.4345  135.8509 C   0  0  0  0  0  0  0  0  0  0  0  0
  205.6902  136.6265  136.2980 C   0  0  0  0  0  0  0  0  0  0  0  0
  206.2459  135.3403  136.8913 C   0  0  0  0  0  0  0  0  0  0  0  0
  206.8282  134.4753  135.7974 C   0  0  1  0  0  0  0  0  0  0  0  0
  207.8290  133.5405  136.4024 C   0  0  0  0  0  0  0  0  0  0  0  0
  209.1678  136.8901  135.3424 C   0  0  0  0  0  0  0  0  0  0  0  0
  209.4625  137.7202  136.2299 O   0  0  0  0  0  0  0  0  0  0  0  0
  210.1907  136.1684  134.7761 O   0  0  0  0  0  0  0  0  0  0  0  0
  211.5604  136.4777  134.9324 C   0  0  2  0  0  0  0  0  0  0  0  0
  212.0762  136.8116  133.7045 O   0  0  0  0  0  0  0  0  0  0  0  0
  213.3706  137.2614  133.7923 C   0  0  2  0  0  0  0  0  0  0  0  0
  213.9150  137.4117  132.3828 C   0  0  0  0  0  0  0  0  0  0  0  0
  213.1934  138.3724  131.7070 O   0  0  0  0  0  0  0  0  0  0  0  0
  214.2490  136.3515  134.5872 C   0  0  1  0  0  0  0  0  0  0  0  0
  214.5255  136.8764  135.8546 O   0  0  0  0  0  0  0  0  0  0  0  0
  213.5778  135.0238  134.7708 C   0  0  2  0  0  0  0  0  0  0  0  0
  213.3976  134.3514  133.5584 O   0  0  0  0  0  0  0  0  0  0  0  0
  212.2341  135.1974  135.4175 C   0  0  1  0  0  0  0  0  0  0  0  0
  212.3040  135.1409  136.8080 O   0  0  0  0  0  0  0  0  0  0  0  0
  203.9793  130.1860  133.7945 O   0  0  0  0  0  0  0  0  0  0  0  0
  202.6750  129.8483  133.5397 C   0  0  2  0  0  0  0  0  0  0  0  0
  202.2476  129.1158  134.6507 O   0  0  0  0  0  0  0  0  0  0  0  0
  202.0030  127.7934  134.4233 C   0  0  2  0  0  0  0  0  0  0  0  0
  201.9265  127.1235  135.8077 C   0  0  0  0  0  0  0  0  0  0  0  0
  203.1915  126.7674  136.2603 O   0  0  0  0  0  0  0  0  0  0  0  0
  203.1371  127.1229  133.7136 C   0  0  1  0  0  0  0  0  0  0  0  0
  202.8314  125.7814  133.4878 O   0  0  0  0  0  0  0  0  0  0  0  0
  203.5923  127.8404  132.4873 C   0  0  2  0  0  0  0  0  0  0  0  0
  204.8856  128.3850  132.6633 O   0  0  0  0  0  0  0  0  0  0  0  0
  202.6753  129.0226  132.2668 C   0  0  1  0  0  0  0  0  0  0  0  0
  201.4160  128.5749  131.9246 O   0  0  0  0  0  0  0  0  0  0  0  0
  201.0366  128.8275  130.6243 C   0  0  2  0  0  0  0  0  0  0  0  0
  200.6718  130.1728  130.5805 O   0  0  0  0  0  0  0  0  0  0  0  0
  200.5473  130.6918  129.3177 C   0  0  2  0  0  0  0  0  0  0  0  0
  200.0070  132.1183  129.4986 C   0  0  0  0  0  0  0  0  0  0  0  0
  200.9737  132.8384  130.1856 O   0  0  0  0  0  0  0  0  0  0  0  0
  199.5659  129.8956  128.5194 C   0  0  1  0  0  0  0  0  0  0  0  0
  200.2151  129.2761  127.4542 O   0  0  0  0  0  0  0  0  0  0  0  0
  198.8638  128.8945  129.3839 C   0  0  2  0  0  0  0  0  0  0  0  0
  197.9394  129.4508  130.2350 O   0  0  0  0  0  0  0  0  0  0  0  0
  199.8247  128.0432  130.1848 C   0  0  1  0  0  0  0  0  0  0  0  0
  200.2824  127.0279  129.3447 O   0  0  0  0  0  0  0  0  0  0  0  0
  1  2  1  1
  2  3  1  0
  3  4  1  0
  4  5  1  0
  5  6  1  0
  6  7  1  6
  7  8  1  0
  8  9  2  0
  6 10  1  0
 10 11  1  0
 12 11  1  1
 12 13  1  0
 13 14  1  6
 13 15  1  0
 15 16  1  0
 16 17  1  0
 17 18  1  0
 18 19  1  1
 13 20  1  0
 20 21  2  0
 20 22  1  0
 23 22  1  6
 23 24  1  0
 24 25  1  0
 25 26  1  6
 26 27  1  0
 25 28  1  0
 28 29  1  1
 28 30  1  0
 30 31  1  6
 30 32  1  0
 32 33  1  1
  4 34  1  1
 35 34  1  1
 35 36  1  0
 36 37  1  0
 37 38  1  1
 38 39  1  0
 37 40  1  0
 40 41  1  6
 40 42  1  0
 42 43  1  1
 42 44  1  0
 44 45  1  1
 46 45  1  1
 46 47  1  0
 47 48  1  0
 48 49  1  1
 49 50  1  0
 48 51  1  0
 51 52  1  6
 51 53  1  0
 53 54  1  1
 53 55  1  0
 55 56  1  6
  6  1  1  0
 18 12  1  0
 32 23  1  0
 44 35  1  0
 55 46  1  0
 18  1  1  0
  8  4  1  0
M  END
$$$$
