
     RDKit          3D

 56 62  0  0  0  0  0  0  0  0999 V2000
  211.1904  165.3950  145.2110 C   0  0  2  0  0  0  0  0  0  0  0  0
  210.6737  166.8180  145.1353 C   0  0  0  0  0  0  0  0  0  0  0  0
  209.6060  167.0103  146.1667 C   0  0  0  0  0  0  0  0  0  0  0  0
  209.9273  166.3666  147.5036 C   0  0  2  0  0  0  0  0  0  0  0  0
  211.4641  166.2269  147.4749 C   0  0  0  0  0  0  0  0  0  0  0  0
  211.6548  165.0141  146.5486 C   0  0  1  0  0  0  0  0  0  0  0  0
  210.6617  164.0698  147.2311 C   0  0  0  0  0  0  0  0  0  0  0  0
  209.5042  164.9739  147.6085 C   0  0  0  0  0  0  0  0  0  0  0  0
  208.3348  164.4349  147.9505 C   0  0  0  0  0  0  0  0  0  0  0  0
  213.0431  164.5682  146.7531 C   0  0  0  0  0  0  0  0  0  0  0  0
  213.8515  164.1699  145.5579 C   0  0  0  0  0  0  0  0  0  0  0  0
  212.8792  163.8631  144.4411 C   0  0  2  0  0  0  0  0  0  0  0  0
  213.3578  162.9522  143.3987 C   0  0  1  0  0  0  0  0  0  0  0  0
  213.4397  161.5539  144.0735 C   0  0  0  0  0  0  0  0  0  0  0  0
  212.2953  162.7983  142.3173 C   0  0  0  0  0  0  0  0  0  0  0  0
  211.0654  163.6012  142.5702 C   0  0  0  0  0  0  0  0  0  0  0  0
  211.5162  165.0376  142.7901 C   0  0  0  0  0  0  0  0  0  0  0  0
  212.2466  165.1546  144.1079 C   0  0  1  0  0  0  0  0  0  0  0  0
  213.1389  166.3559  144.0603 C   0  0  0  0  0  0  0  0  0  0  0  0
  214.6481  163.1591  142.7803 C   0  0  0  0  0  0  0  0  0  0  0  0
  214.7692  163.3142  141.5455 O   0  0  0  0  0  0  0  0  0  0  0  0
  215.7894  163.1953  143.5447 O   0  0  0  0  0  0  0  0  0  0  0  0
  216.9609  162.4603  143.2556 C   0  0  2  0  0  0  0  0  0  0  0  0
  216.6544  161.1221  143.2784 O   0  0  0  0  0  0  0  0  0  0  0  0
  217.7087  160.3431  142.8693 C   0  0  2  0  0  0  0  0  0  0  0  0
  217.3465  158.8897  143.1183 C   0  0  0  0  0  0  0  0  0  0  0  0
  218.3870  158.2565  143.7638 O   0  0  0  0  0  0  0  0  0  0  0  0
  218.9854  160.6805  143.5675 C   0  0  1  0  0  0  0  0  0  0  0  0
  219.8574  161.3920  142.7358 O   0  0  0  0  0  0  0  0  0  0  0  0
  218.7017  161.5246  144.7733 C   0  0  2  0  0  0  0  0  0  0  0  0
  217.9575  160.8362  145.7361 O   0  0  0  0  0  0  0  0  0  0  0  0
  217.9420  162.7598  144.3853 C   0  0  1  0  0  0  0  0  0  0  0  0
  218.7851  163.8245  144.0735 O   0  0  0  0  0  0  0  0  0  0  0  0
  209.6893  167.1863  148.5641 O   0  0  0  0  0  0  0  0  0  0  0  0
  209.4394  168.5120  148.3188 C   0  0  2  0  0  0  0  0  0  0  0  0
  210.6922  169.1152  148.1765 O   0  0  0  0  0  0  0  0  0  0  0  0
  211.0407  169.9855  149.1672 C   0  0  2  0  0  0  0  0  0  0  0  0
  212.5550  170.2235  149.0207 C   0  0  0  0  0  0  0  0  0  0  0  0
  213.2466  169.0190  148.9675 O   0  0  0  0  0  0  0  0  0  0  0  0
  210.8560  169.3941  150.5294 C   0  0  1  0  0  0  0  0  0  0  0  0
  211.2064  170.3266  151.5052 O   0  0  0  0  0  0  0  0  0  0  0  0
  209.5112  168.7863  150.7480 C   0  0  2  0  0  0  0  0  0  0  0  0
  209.5984  167.3797  150.8661 O   0  0  0  0  0  0  0  0  0  0  0  0
  208.6733  169.0437  149.5156 C   0  0  1  0  0  0  0  0  0  0  0  0
  208.4002  170.3923  149.4143 O   0  0  0  0  0  0  0  0  0  0  0  0
  207.0998  170.7505  149.6952 C   0  0  2  0  0  0  0  0  0  0  0  0
  206.5700  171.2533  148.5072 O   0  0  0  0  0  0  0  0  0  0  0  0
  205.2057  171.3876  148.5000 C   0  0  2  0  0  0  0  0  0  0  0  0
  204.8565  172.0811  147.1746 C   0  0  0  0  0  0  0  0  0  0  0  0
  203.4727  172.1076  147.0782 O   0  0  0  0  0  0  0  0  0  0  0  0
  204.7591  172.2512  149.6353 C   0  0  1  0  0  0  0  0  0  0  0  0
  203.9897  171.5035  150.5236 O   0  0  0  0  0  0  0  0  0  0  0  0
  205.9336  172.8737  150.3248 C   0  0  2  0  0  0  0  0  0  0  0  0
  206.5283  173.8807  149.6034 O   0  0  0  0  0  0  0  0  0  0  0  0
  206.9842  171.8570  150.7148 C   0  0  1  0  0  0  0  0  0  0  0  0
  206.5701  171.2659  151.9086 O   0  0  0  0  0  0  0  0  0  0  0  0
  1  2  1  1
  2  3  1  0
  3  4  1  0
  4  5  1  0
  5  6  1  0
  6  7  1  1
  7  8  1  0
  8  9  2  0
  6 10  1  0
 10 11  1  0
 12 11  1  1
 12 13  1  0
 13 14  1  1
 13 15  1  0
 15 16  1  0
 16 17  1  0
 17 18  1  0
 18 19  1  6
 13 20  1  0
 20 21  2  0
 20 22  1  0
 23 22  1  1
 23 24  1  0
 24 25  1  0
 25 26  1  1
 26 27  1  0
 25 28  1  0
 28 29  1  6
 28 30  1  0
 30 31  1  1
 30 32  1  0
 32 33  1  6
  4 34  1  1
 35 34  1  1
 35 36  1  0
 36 37  1  0
 37 38  1  6
 38 39  1  0
 37 40  1  0
 40 41  1  1
 40 42  1  0
 42 43  1  6
 42 44  1  0
 44 45  1  6
 46 45  1  6
 46 47  1  0
 47 48  1  0
 48 49  1  6
 49 50  1  0
 48 51  1  0
 51 52  1  1
 51 53  1  0
 53 54  1  6
 53 55  1  0
 55 56  1  1
  6  1  1  0
 18 12  1  0
 32 23  1  0
 44 35  1  0
 55 46  1  0
 18  1  1  0
  8  4  1  0
M  END
$$$$
