
     RDKit          3D

 56 62  0  0  0  0  0  0  0  0999 V2000
  133.5738  163.8521  155.0746 C   0  0  2  0  0  0  0  0  0  0  0  0
  132.4906  164.7330  155.6647 C   0  0  0  0  0  0  0  0  0  0  0  0
  131.1525  164.2429  155.2063 C   0  0  0  0  0  0  0  0  0  0  0  0
  131.0210  162.7305  155.2176 C   0  0  2  0  0  0  0  0  0  0  0  0
  132.1129  162.2823  156.2121 C   0  0  0  0  0  0  0  0  0  0  0  0
  133.3898  162.4272  155.3672 C   0  0  1  0  0  0  0  0  0  0  0  0
  132.9102  161.6654  154.1288 C   0  0  0  0  0  0  0  0  0  0  0  0
  131.4609  162.0874  153.9837 C   0  0  0  0  0  0  0  0  0  0  0  0
  130.8199  161.8513  152.8398 C   0  0  0  0  0  0  0  0  0  0  0  0
  134.4329  161.6764  156.0857 C   0  0  0  0  0  0  0  0  0  0  0  0
  135.8014  162.2733  156.1917 C   0  0  0  0  0  0  0  0  0  0  0  0
  135.9202  163.3181  155.1049 C   0  0  2  0  0  0  0  0  0  0  0  0
  137.2779  163.6287  154.6517 C   0  0  1  0  0  0  0  0  0  0  0  0
  137.7526  162.3725  153.8680 C   0  0  0  0  0  0  0  0  0  0  0  0
  137.2350  164.7407  153.6108 C   0  0  0  0  0  0  0  0  0  0  0  0
  135.8595  165.2377  153.3244 C   0  0  0  0  0  0  0  0  0  0  0  0
  135.2442  165.6224  154.6617 C   0  0  0  0  0  0  0  0  0  0  0  0
  134.9683  164.3823  155.4801 C   0  0  1  0  0  0  0  0  0  0  0  0
  134.9096  164.7620  156.9272 C   0  0  0  0  0  0  0  0  0  0  0  0
  138.3251  163.9053  155.6094 C   0  0  0  0  0  0  0  0  0  0  0  0
  139.2098  164.7610  155.3888 O   0  0  0  0  0  0  0  0  0  0  0  0
  138.3730  163.2287  156.8044 O   0  0  0  0  0  0  0  0  0  0  0  0
  139.5067  162.5287  157.2743 C   0  0  2  0  0  0  0  0  0  0  0  0
  139.3501  161.1963  156.9821 O   0  0  0  0  0  0  0  0  0  0  0  0
  140.4736  160.4657  157.2815 C   0  0  2  0  0  0  0  0  0  0  0  0
  140.1379  158.9941  157.1163 C   0  0  0  0  0  0  0  0  0  0  0  0
  141.0967  158.2266  157.7424 O   0  0  0  0  0  0  0  0  0  0  0  0
  140.9834  160.7237  158.6618 C   0  0  1  0  0  0  0  0  0  0  0  0
  142.1333  161.5210  158.6477 O   0  0  0  0  0  0  0  0  0  0  0  0
  139.9376  161.4313  159.4696 C   0  0  2  0  0  0  0  0  0  0  0  0
  138.8004  160.6426  159.6675 O   0  0  0  0  0  0  0  0  0  0  0  0
  139.5171  162.7022  158.7903 C   0  0  1  0  0  0  0  0  0  0  0  0
  140.2886  163.7938  159.1837 O   0  0  0  0  0  0  0  0  0  0  0  0
  129.8606  162.2976  155.7829 O   0  0  0  0  0  0  0  0  0  0  0  0
  128.9164  161.7226  154.9718 C   0  0  2  0  0  0  0  0  0  0  0  0
  128.1684  162.7813  154.4489 O   0  0  0  0  0  0  0  0  0  0  0  0
  126.8774  162.8583  154.8820 C   0  0  2  0  0  0  0  0  0  0  0  0
  126.3768  164.2639  154.5017 C   0  0  0  0  0  0  0  0  0  0  0  0
  126.5658  165.1607  155.5467 O   0  0  0  0  0  0  0  0  0  0  0  0
  126.7765  162.7848  156.3733 C   0  0  1  0  0  0  0  0  0  0  0  0
  125.4395  162.8480  156.7641 O   0  0  0  0  0  0  0  0  0  0  0  0
  127.5145  161.6358  156.9739 C   0  0  2  0  0  0  0  0  0  0  0  0
  128.6272  162.0790  157.7260 O   0  0  0  0  0  0  0  0  0  0  0  0
  128.0854  160.8036  155.8475 C   0  0  1  0  0  0  0  0  0  0  0  0
  127.0591  160.1953  155.1545 O   0  0  0  0  0  0  0  0  0  0  0  0
  127.2808  158.8790  154.8133 C   0  0  2  0  0  0  0  0  0  0  0  0
  128.3847  158.4651  155.5583 O   0  0  0  0  0  0  0  0  0  0  0  0
  128.5821  157.1086  155.5846 C   0  0  2  0  0  0  0  0  0  0  0  0
  129.9098  156.8893  156.3255 C   0  0  0  0  0  0  0  0  0  0  0  0
  130.8001  156.3373  155.4158 O   0  0  0  0  0  0  0  0  0  0  0  0
  128.7038  156.5707  154.1953 C   0  0  1  0  0  0  0  0  0  0  0  0
  127.6384  155.7153  153.9248 O   0  0  0  0  0  0  0  0  0  0  0  0
  128.7729  157.6849  153.1971 C   0  0  2  0  0  0  0  0  0  0  0  0
  129.9729  158.3542  153.1978 O   0  0  0  0  0  0  0  0  0  0  0  0
  127.6487  158.6840  153.3629 C   0  0  1  0  0  0  0  0  0  0  0  0
  126.5244  158.1564  152.7275 O   0  0  0  0  0  0  0  0  0  0  0  0
  1  2  1  1
  2  3  1  0
  3  4  1  0
  4  5  1  0
  5  6  1  0
  6  7  1  6
  7  8  1  0
  8  9  2  0
  6 10  1  0
 10 11  1  0
 12 11  1  1
 12 13  1  0
 13 14  1  6
 13 15  1  0
 15 16  1  0
 16 17  1  0
 17 18  1  0
 18 19  1  1
 13 20  1  0
 20 21  2  0
 20 22  1  0
 23 22  1  6
 23 24  1  0
 24 25  1  0
 25 26  1  1
 26 27  1  0
 25 28  1  0
 28 29  1  6
 28 30  1  0
 30 31  1  6
 30 32  1  0
 32 33  1  6
  4 34  1  1
 35 34  1  1
 35 36  1  0
 36 37  1  0
 37 38  1  1
 38 39  1  0
 37 40  1  0
 40 41  1  6
 40 42  1  0
 42 43  1  1
 42 44  1  0
 44 45  1  6
 46 45  1  6
 46 47  1  0
 47 48  1  0
 48 49  1  1
 49 50  1  0
 48 51  1  0
 51 52  1  6
 51 53  1  0
 53 54  1  1
 53 55  1  0
 55 56  1  6
  6  1  1  0
 18 12  1  0
 32 23  1  0
 44 35  1  0
 55 46  1  0
 18  1  1  0
  8  4  1  0
M  END
$$$$
