
     RDKit          3D

 56 62  0  0  0  0  0  0  0  0999 V2000
  129.8174  139.9630  134.7228 C   0  0  2  0  0  0  0  0  0  0  0  0
  130.0561  140.2375  136.1942 C   0  0  0  0  0  0  0  0  0  0  0  0
  129.9311  141.7074  136.4481 C   0  0  0  0  0  0  0  0  0  0  0  0
  128.7739  142.3569  135.7106 C   0  0  2  0  0  0  0  0  0  0  0  0
  127.8292  141.1736  135.4113 C   0  0  0  0  0  0  0  0  0  0  0  0
  128.5407  140.4907  134.2312 C   0  0  1  0  0  0  0  0  0  0  0  0
  128.7532  141.7350  133.3651 C   0  0  0  0  0  0  0  0  0  0  0  0
  129.1097  142.8162  134.3668 C   0  0  0  0  0  0  0  0  0  0  0  0
  129.6518  143.9552  133.9382 C   0  0  0  0  0  0  0  0  0  0  0  0
  127.5452  139.5862  133.6322 C   0  0  0  0  0  0  0  0  0  0  0  0
  127.9822  138.2186  133.2090 C   0  0  0  0  0  0  0  0  0  0  0  0
  129.4866  138.2546  133.0604 C   0  0  2  0  0  0  0  0  0  0  0  0
  130.0712  137.2625  132.1553 C   0  0  1  0  0  0  0  0  0  0  0  0
  129.6506  137.7048  130.7253 C   0  0  0  0  0  0  0  0  0  0  0  0
  131.5903  137.3826  132.1663 C   0  0  0  0  0  0  0  0  0  0  0  0
  132.0987  138.4436  133.0812 C   0  0  0  0  0  0  0  0  0  0  0  0
  131.4929  138.1705  134.4500 C   0  0  0  0  0  0  0  0  0  0  0  0
  130.0094  138.4579  134.4259 C   0  0  1  0  0  0  0  0  0  0  0  0
  129.3504  137.6873  135.5274 C   0  0  0  0  0  0  0  0  0  0  0  0
  129.6973  135.8694  132.2546 C   0  0  0  0  0  0  0  0  0  0  0  0
  130.5539  134.9612  132.3253 O   0  0  0  0  0  0  0  0  0  0  0  0
  128.3732  135.5034  132.2786 O   0  0  0  0  0  0  0  0  0  0  0  0
  127.6712  134.9933  131.1635 C   0  0  2  0  0  0  0  0  0  0  0  0
  127.3410  136.0401  130.3385 O   0  0  0  0  0  0  0  0  0  0  0  0
  126.7783  135.6128  129.1611 C   0  0  2  0  0  0  0  0  0  0  0  0
  126.2682  136.8311  128.4120 C   0  0  0  0  0  0  0  0  0  0  0  0
  124.9262  137.0078  128.6732 O   0  0  0  0  0  0  0  0  0  0  0  0
  125.6671  134.6363  129.3691 C   0  0  1  0  0  0  0  0  0  0  0  0
  126.0608  133.3305  129.0558 O   0  0  0  0  0  0  0  0  0  0  0  0
  125.2286  134.6578  130.8024 C   0  0  2  0  0  0  0  0  0  0  0  0
  124.6742  135.8885  131.1662 O   0  0  0  0  0  0  0  0  0  0  0  0
  126.3885  134.3760  131.7128 C   0  0  1  0  0  0  0  0  0  0  0  0
  126.5371  133.0159  131.9765 O   0  0  0  0  0  0  0  0  0  0  0  0
  128.0314  143.1819  136.4989 O   0  0  0  0  0  0  0  0  0  0  0  0
  128.4506  144.4772  136.6621 C   0  0  2  0  0  0  0  0  0  0  0  0
  129.0956  144.5150  137.9015 O   0  0  0  0  0  0  0  0  0  0  0  0
  128.4614  145.2338  138.8717 C   0  0  2  0  0  0  0  0  0  0  0  0
  129.1175  144.8327  140.2057 C   0  0  0  0  0  0  0  0  0  0  0  0
  128.8265  143.5123  140.5278 O   0  0  0  0  0  0  0  0  0  0  0  0
  127.0192  144.8565  139.0028 C   0  0  1  0  0  0  0  0  0  0  0  0
  126.4121  145.6304  139.9911 O   0  0  0  0  0  0  0  0  0  0  0  0
  126.2738  144.8563  137.7104 C   0  0  2  0  0  0  0  0  0  0  0  0
  125.9056  143.5444  137.3320 O   0  0  0  0  0  0  0  0  0  0  0  0
  127.2090  145.3485  136.6286 C   0  0  1  0  0  0  0  0  0  0  0  0
  127.4920  146.6834  136.8326 O   0  0  0  0  0  0  0  0  0  0  0  0
  127.2445  147.5070  135.7561 C   0  0  2  0  0  0  0  0  0  0  0  0
  128.4815  147.7484  135.1592 O   0  0  0  0  0  0  0  0  0  0  0  0
  128.4149  148.3010  133.9063 C   0  0  2  0  0  0  0  0  0  0  0  0
  129.8645  148.6119  133.5042 C   0  0  0  0  0  0  0  0  0  0  0  0
  129.9794  148.3451  132.1475 O   0  0  0  0  0  0  0  0  0  0  0  0
  127.6331  149.5747  133.9373 C   0  0  1  0  0  0  0  0  0  0  0  0
  126.4699  149.4335  133.1843 O   0  0  0  0  0  0  0  0  0  0  0  0
  127.3227  149.9749  135.3465 C   0  0  2  0  0  0  0  0  0  0  0  0
  128.4091  150.4562  136.0366 O   0  0  0  0  0  0  0  0  0  0  0  0
  126.6874  148.8553  136.1418 C   0  0  1  0  0  0  0  0  0  0  0  0
  125.3288  148.8376  135.8255 O   0  0  0  0  0  0  0  0  0  0  0  0
  1  2  1  1
  2  3  1  0
  3  4  1  0
  4  5  1  0
  5  6  1  0
  6  7  1  6
  7  8  1  0
  8  9  2  0
  6 10  1  0
 10 11  1  0
 12 11  1  1
 12 13  1  0
 13 14  1  6
 13 15  1  0
 15 16  1  0
 16 17  1  0
 17 18  1  0
 18 19  1  1
 13 20  1  0
 20 21  2  0
 20 22  1  0
 23 22  1  1
 23 24  1  0
 24 25  1  0
 25 26  1  1
 26 27  1  0
 25 28  1  0
 28 29  1  1
 28 30  1  0
 30 31  1  1
 30 32  1  0
 32 33  1  6
  4 34  1  1
 35 34  1  1
 35 36  1  0
 36 37  1  0
 37 38  1  1
 38 39  1  0
 37 40  1  0
 40 41  1  1
 40 42  1  0
 42 43  1  6
 42 44  1  0
 44 45  1  1
 46 45  1  1
 46 47  1  0
 47 48  1  0
 48 49  1  1
 49 50  1  0
 48 51  1  0
 51 52  1  6
 51 53  1  0
 53 54  1  1
 53 55  1  0
 55 56  1  6
  6  1  1  0
 18 12  1  0
 32 23  1  0
 44 35  1  0
 55 46  1  0
 18  1  1  0
  8  4  1  0
M  END
$$$$
