
     RDKit          3D

 56 62  0  0  0  0  0  0  0  0999 V2000
  179.4901  146.6233  125.7349 C   0  0  2  0  0  0  0  0  0  0  0  0
  179.7152  145.6544  126.8787 C   0  0  0  0  0  0  0  0  0  0  0  0
  178.5116  144.7767  127.0254 C   0  0  0  0  0  0  0  0  0  0  0  0
  177.9386  144.3023  125.7019 C   0  0  2  0  0  0  0  0  0  0  0  0
  179.1244  144.4466  124.7246 C   0  0  0  0  0  0  0  0  0  0  0  0
  179.1441  145.9636  124.4720 C   0  0  1  0  0  0  0  0  0  0  0  0
  177.6595  146.1415  124.1435 C   0  0  0  0  0  0  0  0  0  0  0  0
  176.9599  145.2141  125.1182 C   0  0  0  0  0  0  0  0  0  0  0  0
  175.6485  145.3393  125.3174 C   0  0  0  0  0  0  0  0  0  0  0  0
  179.9830  146.1600  123.2780 C   0  0  0  0  0  0  0  0  0  0  0  0
  180.9584  147.2953  123.2661 C   0  0  0  0  0  0  0  0  0  0  0  0
  180.5110  148.2818  124.3213 C   0  0  2  0  0  0  0  0  0  0  0  0
  180.9391  149.6697  124.1322 C   0  0  1  0  0  0  0  0  0  0  0  0
  180.1265  150.1937  122.9146 C   0  0  0  0  0  0  0  0  0  0  0  0
  180.4699  150.5211  125.3057 C   0  0  0  0  0  0  0  0  0  0  0  0
  179.7207  149.7520  126.3394 C   0  0  0  0  0  0  0  0  0  0  0  0
  180.6053  148.5817  126.7429 C   0  0  0  0  0  0  0  0  0  0  0  0
  180.6939  147.5854  125.6100 C   0  0  1  0  0  0  0  0  0  0  0  0
  181.9435  146.7774  125.7743 C   0  0  0  0  0  0  0  0  0  0  0  0
  182.3204  149.9769  123.8360 C   0  0  0  0  0  0  0  0  0  0  0  0
  182.6394  150.7267  122.8875 O   0  0  0  0  0  0  0  0  0  0  0  0
  183.3314  149.4491  124.6023 O   0  0  0  0  0  0  0  0  0  0  0  0
  183.7314  148.0945  124.5632 C   0  0  2  0  0  0  0  0  0  0  0  0
  183.6723  147.5842  125.8365 O   0  0  0  0  0  0  0  0  0  0  0  0
  183.9119  146.2323  125.8634 C   0  0  2  0  0  0  0  0  0  0  0  0
  184.0244  145.8014  127.3150 C   0  0  0  0  0  0  0  0  0  0  0  0
  183.7354  144.4578  127.4237 O   0  0  0  0  0  0  0  0  0  0  0  0
  185.1466  145.8463  125.1166 C   0  0  1  0  0  0  0  0  0  0  0  0
  184.8425  145.2463  123.8895 O   0  0  0  0  0  0  0  0  0  0  0  0
  185.9814  147.0614  124.8451 C   0  0  2  0  0  0  0  0  0  0  0  0
  186.4620  147.6449  126.0211 O   0  0  0  0  0  0  0  0  0  0  0  0
  185.1849  148.0922  124.0990 C   0  0  1  0  0  0  0  0  0  0  0  0
  185.2896  147.9448  122.7173 O   0  0  0  0  0  0  0  0  0  0  0  0
  177.6570  142.9705  125.6863 O   0  0  0  0  0  0  0  0  0  0  0  0
  178.7001  142.0838  125.7631 C   0  0  2  0  0  0  0  0  0  0  0  0
  179.0580  141.8020  124.4417 O   0  0  0  0  0  0  0  0  0  0  0  0
  178.7979  140.5308  124.0214 C   0  0  2  0  0  0  0  0  0  0  0  0
  178.9041  140.5529  122.4855 C   0  0  0  0  0  0  0  0  0  0  0  0
  180.2174  140.7584  122.0789 O   0  0  0  0  0  0  0  0  0  0  0  0
  177.3928  140.1127  124.3219 C   0  0  1  0  0  0  0  0  0  0  0  0
  177.1829  138.8031  123.8917 O   0  0  0  0  0  0  0  0  0  0  0  0
  176.9825  140.3432  125.7376 C   0  0  2  0  0  0  0  0  0  0  0  0
  176.0041  141.3604  125.8279 O   0  0  0  0  0  0  0  0  0  0  0  0
  178.1839  140.8603  126.4968 C   0  0  1  0  0  0  0  0  0  0  0  0
  179.1321  139.8633  126.5985 O   0  0  0  0  0  0  0  0  0  0  0  0
  178.6865  138.6841  127.1548 C   0  0  2  0  0  0  0  0  0  0  0  0
  179.5837  138.3729  128.1761 O   0  0  0  0  0  0  0  0  0  0  0  0
  179.1530  137.3995  129.0401 C   0  0  2  0  0  0  0  0  0  0  0  0
  180.3341  137.1169  129.9807 C   0  0  0  0  0  0  0  0  0  0  0  0
  181.4522  136.9140  129.1846 O   0  0  0  0  0  0  0  0  0  0  0  0
  178.8140  136.1499  128.2932 C   0  0  1  0  0  0  0  0  0  0  0  0
  177.4511  135.8859  128.4077 O   0  0  0  0  0  0  0  0  0  0  0  0
  179.2275  136.2585  126.8580 C   0  0  2  0  0  0  0  0  0  0  0  0
  180.5857  136.1767  126.6663 O   0  0  0  0  0  0  0  0  0  0  0  0
  178.7093  137.5176  126.1979 C   0  0  1  0  0  0  0  0  0  0  0  0
  177.3879  137.2775  125.8206 O   0  0  0  0  0  0  0  0  0  0  0  0
  1  2  1  1
  2  3  1  0
  3  4  1  0
  4  5  1  0
  5  6  1  0
  6  7  1  6
  7  8  1  0
  8  9  2  0
  6 10  1  0
 10 11  1  0
 12 11  1  6
 12 13  1  0
 13 14  1  6
 13 15  1  0
 15 16  1  0
 16 17  1  0
 17 18  1  0
 18 19  1  6
 13 20  1  0
 20 21  2  0
 20 22  1  0
 23 22  1  1
 23 24  1  0
 24 25  1  0
 25 26  1  1
 26 27  1  0
 25 28  1  0
 28 29  1  6
 28 30  1  0
 30 31  1  1
 30 32  1  0
 32 33  1  6
  4 34  1  1
 35 34  1  6
 35 36  1  0
 36 37  1  0
 37 38  1  6
 38 39  1  0
 37 40  1  0
 40 41  1  1
 40 42  1  0
 42 43  1  6
 42 44  1  0
 44 45  1  6
 46 45  1  6
 46 47  1  0
 47 48  1  0
 48 49  1  1
 49 50  1  0
 48 51  1  0
 51 52  1  6
 51 53  1  0
 53 54  1  1
 53 55  1  0
 55 56  1  1
  6  1  1  0
 18 12  1  0
 32 23  1  0
 44 35  1  0
 55 46  1  0
 18  1  1  0
  8  4  1  0
M  END
$$$$
