
     RDKit          3D

 56 62  0  0  0  0  0  0  0  0999 V2000
  116.3973  146.9406  158.7932 C   0  0  2  0  0  0  0  0  0  0  0  0
  115.2446  145.9861  158.5531 C   0  0  0  0  0  0  0  0  0  0  0  0
  113.9650  146.7611  158.5037 C   0  0  0  0  0  0  0  0  0  0  0  0
  114.0718  148.0653  157.7339 C   0  0  2  0  0  0  0  0  0  0  0  0
  115.3009  147.8471  156.8264 C   0  0  0  0  0  0  0  0  0  0  0  0
  116.4630  148.0324  157.8167 C   0  0  1  0  0  0  0  0  0  0  0  0
  116.0038  149.3557  158.4346 C   0  0  0  0  0  0  0  0  0  0  0  0
  114.4995  149.2001  158.5457 C   0  0  0  0  0  0  0  0  0  0  0  0
  113.8078  150.0395  159.3151 C   0  0  0  0  0  0  0  0  0  0  0  0
  117.6676  148.2178  156.9906 C   0  0  0  0  0  0  0  0  0  0  0  0
  118.9306  147.5263  157.3995 C   0  0  0  0  0  0  0  0  0  0  0  0
  118.7921  147.1679  158.8622 C   0  0  2  0  0  0  0  0  0  0  0  0
  120.0413  147.0057  159.6095 C   0  0  1  0  0  0  0  0  0  0  0  0
  120.6371  148.4359  159.7398 C   0  0  0  0  0  0  0  0  0  0  0  0
  119.7373  146.5813  161.0410 C   0  0  0  0  0  0  0  0  0  0  0  0
  118.2818  146.4259  161.3214 C   0  0  0  0  0  0  0  0  0  0  0  0
  117.7306  145.4767  160.2677 C   0  0  0  0  0  0  0  0  0  0  0  0
  117.7218  146.1526  158.9162 C   0  0  1  0  0  0  0  0  0  0  0  0
  117.7284  145.1012  157.8504 C   0  0  0  0  0  0  0  0  0  0  0  0
  121.1105  146.1883  159.0814 C   0  0  0  0  0  0  0  0  0  0  0  0
  121.7450  146.5167  158.0551 O   0  0  0  0  0  0  0  0  0  0  0  0
  121.4644  145.0161  159.7048 O   0  0  0  0  0  0  0  0  0  0  0  0
  120.6411  144.3262  160.6225 C   0  0  2  0  0  0  0  0  0  0  0  0
  120.8499  144.8478  161.8753 O   0  0  0  0  0  0  0  0  0  0  0  0
  119.9836  144.3256  162.8039 C   0  0  2  0  0  0  0  0  0  0  0  0
  120.4186  144.8047  164.1775 C   0  0  0  0  0  0  0  0  0  0  0  0
  120.1571  146.1525  164.3029 O   0  0  0  0  0  0  0  0  0  0  0  0
  119.9307  142.8331  162.7742 C   0  0  1  0  0  0  0  0  0  0  0  0
  118.7543  142.3690  162.1752 O   0  0  0  0  0  0  0  0  0  0  0  0
  121.0923  142.2953  161.9942 C   0  0  2  0  0  0  0  0  0  0  0  0
  122.3165  142.5816  162.6057 O   0  0  0  0  0  0  0  0  0  0  0  0
  121.1107  142.8744  160.6093 C   0  0  1  0  0  0  0  0  0  0  0  0
  120.3880  142.1020  159.7022 O   0  0  0  0  0  0  0  0  0  0  0  0
  113.0455  148.2577  156.8604 O   0  0  0  0  0  0  0  0  0  0  0  0
  113.3474  148.5119  155.5473 C   0  0  2  0  0  0  0  0  0  0  0  0
  113.5901  149.8864  155.4719 O   0  0  0  0  0  0  0  0  0  0  0  0
  112.6680  150.6079  154.7724 C   0  0  2  0  0  0  0  0  0  0  0  0
  112.9096  152.0850  155.1344 C   0  0  0  0  0  0  0  0  0  0  0  0
  111.8351  152.6068  155.8451 O   0  0  0  0  0  0  0  0  0  0  0  0
  111.2680  150.3101  155.2092 C   0  0  1  0  0  0  0  0  0  0  0  0
  110.3642  151.0559  154.4533 O   0  0  0  0  0  0  0  0  0  0  0  0
  110.9441  148.8544  155.2516 C   0  0  2  0  0  0  0  0  0  0  0  0
  110.7557  148.4104  156.5810 O   0  0  0  0  0  0  0  0  0  0  0  0
  112.1407  148.0913  154.7294 C   0  0  1  0  0  0  0  0  0  0  0  0
  112.2991  148.3430  153.3822 O   0  0  0  0  0  0  0  0  0  0  0  0
  111.5466  147.5491  152.5444 C   0  0  2  0  0  0  0  0  0  0  0  0
  111.9321  146.2344  152.8051 O   0  0  0  0  0  0  0  0  0  0  0  0
  111.0947  145.2790  152.2898 C   0  0  2  0  0  0  0  0  0  0  0  0
  111.7742  143.9290  152.5647 C   0  0  0  0  0  0  0  0  0  0  0  0
  110.7951  142.9507  152.4695 O   0  0  0  0  0  0  0  0  0  0  0  0
  110.9431  145.4575  150.8136 C   0  0  1  0  0  0  0  0  0  0  0  0
  109.6247  145.7895  150.5106 O   0  0  0  0  0  0  0  0  0  0  0  0
  111.8954  146.4937  150.3018 C   0  0  2  0  0  0  0  0  0  0  0  0
  113.2026  146.0718  150.2622 O   0  0  0  0  0  0  0  0  0  0  0  0
  111.8169  147.7894  151.0794 C   0  0  1  0  0  0  0  0  0  0  0  0
  110.7317  148.5103  150.5805 O   0  0  0  0  0  0  0  0  0  0  0  0
  1  2  1  6
  2  3  1  0
  3  4  1  0
  4  5  1  0
  5  6  1  0
  6  7  1  1
  7  8  1  0
  8  9  2  0
  6 10  1  0
 10 11  1  0
 12 11  1  6
 12 13  1  0
 13 14  1  1
 13 15  1  0
 15 16  1  0
 16 17  1  0
 17 18  1  0
 18 19  1  6
 13 20  1  0
 20 21  2  0
 20 22  1  0
 23 22  1  6
 23 24  1  0
 24 25  1  0
 25 26  1  1
 26 27  1  0
 25 28  1  0
 28 29  1  6
 28 30  1  0
 30 31  1  1
 30 32  1  0
 32 33  1  6
  4 34  1  6
 35 34  1  1
 35 36  1  0
 36 37  1  0
 37 38  1  1
 38 39  1  0
 37 40  1  0
 40 41  1  6
 40 42  1  0
 42 43  1  1
 42 44  1  0
 44 45  1  6
 46 45  1  1
 46 47  1  0
 47 48  1  0
 48 49  1  6
 49 50  1  0
 48 51  1  0
 51 52  1  1
 51 53  1  0
 53 54  1  1
 53 55  1  0
 55 56  1  6
  6  1  1  0
 18 12  1  0
 32 23  1  0
 44 35  1  0
 55 46  1  0
 18  1  1  0
  8  4  1  0
M  END
$$$$
