
     RDKit          3D

 56 62  0  0  0  0  0  0  0  0999 V2000
  166.4924  149.5578  127.2673 C   0  0  2  0  0  0  0  0  0  0  0  0
  167.9626  149.8267  127.0142 C   0  0  0  0  0  0  0  0  0  0  0  0
  168.7128  149.7186  128.3049 C   0  0  0  0  0  0  0  0  0  0  0  0
  168.2703  148.5528  129.1711 C   0  0  2  0  0  0  0  0  0  0  0  0
  167.5989  147.5931  128.1660 C   0  0  0  0  0  0  0  0  0  0  0  0
  166.2408  148.2765  127.9340 C   0  0  1  0  0  0  0  0  0  0  0  0
  165.8556  148.4825  129.4013 C   0  0  0  0  0  0  0  0  0  0  0  0
  167.1625  148.8669  130.0676 C   0  0  0  0  0  0  0  0  0  0  0  0
  167.1443  149.4100  131.2840 C   0  0  0  0  0  0  0  0  0  0  0  0
  165.3861  147.2624  127.2944 C   0  0  0  0  0  0  0  0  0  0  0  0
  164.5059  147.6801  126.1581 C   0  0  0  0  0  0  0  0  0  0  0  0
  164.3481  149.1817  126.2418 C   0  0  2  0  0  0  0  0  0  0  0  0
  163.1433  149.7409  125.6245 C   0  0  1  0  0  0  0  0  0  0  0  0
  161.9643  149.2968  126.5357 C   0  0  0  0  0  0  0  0  0  0  0  0
  163.1639  151.2608  125.7317 C   0  0  0  0  0  0  0  0  0  0  0  0
  164.3792  151.7951  126.4090 C   0  0  0  0  0  0  0  0  0  0  0  0
  165.5806  151.2132  125.6788 C   0  0  0  0  0  0  0  0  0  0  0  0
  165.6882  149.7320  125.9583 C   0  0  1  0  0  0  0  0  0  0  0  0
  166.4676  149.0877  124.8542 C   0  0  0  0  0  0  0  0  0  0  0  0
  162.7611  149.3576  124.2838 C   0  0  0  0  0  0  0  0  0  0  0  0
  161.9575  150.0372  123.6086 O   0  0  0  0  0  0  0  0  0  0  0  0
  163.2817  148.2237  123.7082 O   0  0  0  0  0  0  0  0  0  0  0  0
  162.5349  147.0534  123.4455 C   0  0  2  0  0  0  0  0  0  0  0  0
  161.2018  147.3815  123.4218 O   0  0  0  0  0  0  0  0  0  0  0  0
  160.4160  146.3244  123.0336 C   0  0  2  0  0  0  0  0  0  0  0  0
  158.9630  146.7186  123.2307 C   0  0  0  0  0  0  0  0  0  0  0  0
  158.8961  147.9487  123.8496 O   0  0  0  0  0  0  0  0  0  0  0  0
  160.7144  145.0707  123.7890 C   0  0  1  0  0  0  0  0  0  0  0  0
  161.4321  144.1560  123.0102 O   0  0  0  0  0  0  0  0  0  0  0  0
  161.5323  145.3879  125.0044 C   0  0  2  0  0  0  0  0  0  0  0  0
  160.8323  146.1797  125.9196 O   0  0  0  0  0  0  0  0  0  0  0  0
  162.7894  146.1125  124.6195 C   0  0  1  0  0  0  0  0  0  0  0  0
  163.8475  145.2413  124.3681 O   0  0  0  0  0  0  0  0  0  0  0  0
  169.3109  147.8322  129.6723 O   0  0  0  0  0  0  0  0  0  0  0  0
  170.5422  148.4312  129.7449 C   0  0  2  0  0  0  0  0  0  0  0  0
  171.1238  148.2593  128.4856 O   0  0  0  0  0  0  0  0  0  0  0  0
  172.2013  147.4240  128.4456 C   0  0  2  0  0  0  0  0  0  0  0  0
  172.4315  147.0860  126.9611 C   0  0  0  0  0  0  0  0  0  0  0  0
  171.3350  146.4211  126.4249 O   0  0  0  0  0  0  0  0  0  0  0  0
  171.9273  146.1159  129.1187 C   0  0  1  0  0  0  0  0  0  0  0  0
  173.0621  145.3072  129.0682 O   0  0  0  0  0  0  0  0  0  0  0  0
  171.3565  146.2490  130.4906 C   0  0  2  0  0  0  0  0  0  0  0  0
  170.0144  145.8047  130.5319 O   0  0  0  0  0  0  0  0  0  0  0  0
  171.3132  147.7195  130.8409 C   0  0  1  0  0  0  0  0  0  0  0  0
  172.5986  148.2001  130.9831 O   0  0  0  0  0  0  0  0  0  0  0  0
  173.0133  148.3911  132.2831 C   0  0  2  0  0  0  0  0  0  0  0  0
  172.0625  149.2212  132.8762 O   0  0  0  0  0  0  0  0  0  0  0  0
  172.1343  149.2889  134.2436 C   0  0  2  0  0  0  0  0  0  0  0  0
  171.1097  150.3516  134.6683 C   0  0  0  0  0  0  0  0  0  0  0  0
  170.5610  150.8783  133.5079 O   0  0  0  0  0  0  0  0  0  0  0  0
  173.4974  149.7253  134.6748 C   0  0  1  0  0  0  0  0  0  0  0  0
  174.1201  148.6997  135.3824 O   0  0  0  0  0  0  0  0  0  0  0  0
  174.3187  150.1485  133.4962 C   0  0  2  0  0  0  0  0  0  0  0  0
  173.9415  151.3585  132.9654 O   0  0  0  0  0  0  0  0  0  0  0  0
  174.3356  149.1092  132.3967 C   0  0  1  0  0  0  0  0  0  0  0  0
  175.2884  148.1508  132.7428 O   0  0  0  0  0  0  0  0  0  0  0  0
  1  2  1  6
  2  3  1  0
  3  4  1  0
  4  5  1  0
  5  6  1  0
  6  7  1  1
  7  8  1  0
  8  9  2  0
  6 10  1  0
 10 11  1  0
 12 11  1  6
 12 13  1  0
 13 14  1  1
 13 15  1  0
 15 16  1  0
 16 17  1  0
 17 18  1  0
 18 19  1  6
 13 20  1  0
 20 21  2  0
 20 22  1  0
 23 22  1  1
 23 24  1  0
 24 25  1  0
 25 26  1  1
 26 27  1  0
 25 28  1  0
 28 29  1  6
 28 30  1  0
 30 31  1  1
 30 32  1  0
 32 33  1  6
  4 34  1  1
 35 34  1  6
 35 36  1  0
 36 37  1  0
 37 38  1  6
 38 39  1  0
 37 40  1  0
 40 41  1  1
 40 42  1  0
 42 43  1  6
 42 44  1  0
 44 45  1  6
 46 45  1  6
 46 47  1  0
 47 48  1  0
 48 49  1  6
 49 50  1  0
 48 51  1  0
 51 52  1  6
 51 53  1  0
 53 54  1  6
 53 55  1  0
 55 56  1  1
  6  1  1  0
 18 12  1  0
 32 23  1  0
 44 35  1  0
 55 46  1  0
 18  1  1  0
  8  4  1  0
M  END
$$$$
