
     RDKit          3D

 56 62  0  0  0  0  0  0  0  0999 V2000
  189.5710  161.5709  131.2464 C   0  0  2  0  0  0  0  0  0  0  0  0
  189.2551  162.5817  130.1619 C   0  0  0  0  0  0  0  0  0  0  0  0
  189.9784  162.2014  128.9078 C   0  0  0  0  0  0  0  0  0  0  0  0
  189.9528  160.7114  128.6176 C   0  0  2  0  0  0  0  0  0  0  0  0
  188.7329  160.2103  129.4193 C   0  0  0  0  0  0  0  0  0  0  0  0
  189.2847  160.1873  130.8547 C   0  0  1  0  0  0  0  0  0  0  0  0
  190.5753  159.4140  130.5715 C   0  0  0  0  0  0  0  0  0  0  0  0
  191.0432  159.9670  129.2393 C   0  0  0  0  0  0  0  0  0  0  0  0
  192.2915  159.7366  128.8349 C   0  0  0  0  0  0  0  0  0  0  0  0
  188.3361  159.3761  131.6357 C   0  0  0  0  0  0  0  0  0  0  0  0
  187.9530  159.8418  133.0056 C   0  0  0  0  0  0  0  0  0  0  0  0
  189.0176  160.8137  133.4627 C   0  0  2  0  0  0  0  0  0  0  0  0
  189.1744  160.9675  134.9108 C   0  0  1  0  0  0  0  0  0  0  0  0
  189.8004  159.6330  135.4056 C   0  0  0  0  0  0  0  0  0  0  0  0
  190.2312  162.0243  135.2082 C   0  0  0  0  0  0  0  0  0  0  0  0
  190.8231  162.6374  133.9855 C   0  0  0  0  0  0  0  0  0  0  0  0
  189.6624  163.1473  133.1441 C   0  0  0  0  0  0  0  0  0  0  0  0
  188.8882  161.9830  132.5709 C   0  0  1  0  0  0  0  0  0  0  0  0
  187.4997  162.4394  132.2462 C   0  0  0  0  0  0  0  0  0  0  0  0
  188.0208  161.1892  135.7536 C   0  0  0  0  0  0  0  0  0  0  0  0
  188.0891  161.8775  136.7953 O   0  0  0  0  0  0  0  0  0  0  0  0
  186.8027  160.6454  135.4245 O   0  0  0  0  0  0  0  0  0  0  0  0
  185.9838  159.9303  136.3270 C   0  0  2  0  0  0  0  0  0  0  0  0
  185.6865  158.7090  135.7743 O   0  0  0  0  0  0  0  0  0  0  0  0
  185.0086  157.8966  136.6495 C   0  0  2  0  0  0  0  0  0  0  0  0
  184.5525  156.6625  135.8915 C   0  0  0  0  0  0  0  0  0  0  0  0
  184.6775  155.5509  136.6972 O   0  0  0  0  0  0  0  0  0  0  0  0
  183.8361  158.5734  137.2808 C   0  0  1  0  0  0  0  0  0  0  0  0
  184.0948  158.9224  138.6111 O   0  0  0  0  0  0  0  0  0  0  0  0
  183.5023  159.8263  136.5287 C   0  0  2  0  0  0  0  0  0  0  0  0
  183.0809  159.5611  135.2223 O   0  0  0  0  0  0  0  0  0  0  0  0
  184.6950  160.7356  136.4635 C   0  0  1  0  0  0  0  0  0  0  0  0
  184.7459  161.6208  137.5384 O   0  0  0  0  0  0  0  0  0  0  0  0
  189.6403  160.4225  127.3244 O   0  0  0  0  0  0  0  0  0  0  0  0
  190.4657  159.5772  126.6286 C   0  0  2  0  0  0  0  0  0  0  0  0
  191.3684  160.4004  125.9496 O   0  0  0  0  0  0  0  0  0  0  0  0
  191.2399  160.4183  124.5919 C   0  0  2  0  0  0  0  0  0  0  0  0
  192.0399  161.6378  124.0979 C   0  0  0  0  0  0  0  0  0  0  0  0
  191.2883  162.8025  124.2008 O   0  0  0  0  0  0  0  0  0  0  0  0
  189.8276  160.6618  124.1612 C   0  0  1  0  0  0  0  0  0  0  0  0
  189.7455  160.6516  122.7693 O   0  0  0  0  0  0  0  0  0  0  0  0
  188.8316  159.7669  124.8191 C   0  0  2  0  0  0  0  0  0  0  0  0
  187.9961  160.4915  125.7006 O   0  0  0  0  0  0  0  0  0  0  0  0
  189.5846  158.7812  125.6842 C   0  0  1  0  0  0  0  0  0  0  0  0
  190.3067  157.9198  124.8841 O   0  0  0  0  0  0  0  0  0  0  0  0
  189.8654  156.6146  124.8791 C   0  0  2  0  0  0  0  0  0  0  0  0
  189.5077  156.3204  126.1945 O   0  0  0  0  0  0  0  0  0  0  0  0
  188.7702  155.1745  126.3450 C   0  0  2  0  0  0  0  0  0  0  0  0
  188.6139  154.9686  127.8593 C   0  0  0  0  0  0  0  0  0  0  0  0
  187.3687  155.4671  128.2140 O   0  0  0  0  0  0  0  0  0  0  0  0
  189.4979  154.0043  125.7658 C   0  0  1  0  0  0  0  0  0  0  0  0
  188.7876  153.4961  124.6807 O   0  0  0  0  0  0  0  0  0  0  0  0
  190.8916  154.3856  125.3722 C   0  0  2  0  0  0  0  0  0  0  0  0
  191.7375  154.5669  126.4398 O   0  0  0  0  0  0  0  0  0  0  0  0
  190.9308  155.6175  124.4945 C   0  0  1  0  0  0  0  0  0  0  0  0
  190.6517  155.2097  123.1900 O   0  0  0  0  0  0  0  0  0  0  0  0
  1  2  1  6
  2  3  1  0
  3  4  1  0
  4  5  1  0
  5  6  1  0
  6  7  1  6
  7  8  1  0
  8  9  2  0
  6 10  1  0
 10 11  1  0
 12 11  1  1
 12 13  1  0
 13 14  1  1
 13 15  1  0
 15 16  1  0
 16 17  1  0
 17 18  1  0
 18 19  1  6
 13 20  1  0
 20 21  2  0
 20 22  1  0
 23 22  1  6
 23 24  1  0
 24 25  1  0
 25 26  1  6
 26 27  1  0
 25 28  1  0
 28 29  1  1
 28 30  1  0
 30 31  1  6
 30 32  1  0
 32 33  1  1
  4 34  1  6
 35 34  1  1
 35 36  1  0
 36 37  1  0
 37 38  1  6
 38 39  1  0
 37 40  1  0
 40 41  1  6
 40 42  1  0
 42 43  1  1
 42 44  1  0
 44 45  1  6
 46 45  1  1
 46 47  1  0
 47 48  1  0
 48 49  1  1
 49 50  1  0
 48 51  1  0
 51 52  1  6
 51 53  1  0
 53 54  1  1
 53 55  1  0
 55 56  1  6
  6  1  1  0
 18 12  1  0
 32 23  1  0
 44 35  1  0
 55 46  1  0
 18  1  1  0
  8  4  1  0
M  END
$$$$
