
     RDKit          3D

 56 62  0  0  0  0  0  0  0  0999 V2000
  167.0179  148.2440  126.9990 C   0  0  2  0  0  0  0  0  0  0  0  0
  166.7437  147.4037  125.7676 C   0  0  0  0  0  0  0  0  0  0  0  0
  166.8150  145.9542  126.1341 C   0  0  0  0  0  0  0  0  0  0  0  0
  166.1576  145.6287  127.4633 C   0  0  2  0  0  0  0  0  0  0  0  0
  165.1844  146.8067  127.6807 C   0  0  0  0  0  0  0  0  0  0  0  0
  166.1380  147.9272  128.1284 C   0  0  1  0  0  0  0  0  0  0  0  0
  166.8871  147.1460  129.2111 C   0  0  0  0  0  0  0  0  0  0  0  0
  167.0466  145.7616  128.6131 C   0  0  0  0  0  0  0  0  0  0  0  0
  167.9140  144.9082  129.1555 C   0  0  0  0  0  0  0  0  0  0  0  0
  165.2820  148.9703  128.7175 C   0  0  0  0  0  0  0  0  0  0  0  0
  165.5765  150.4031  128.4002 C   0  0  0  0  0  0  0  0  0  0  0  0
  167.0070  150.4698  127.9141 C   0  0  2  0  0  0  0  0  0  0  0  0
  167.6849  151.7583  128.0732 C   0  0  1  0  0  0  0  0  0  0  0  0
  167.9142  151.9218  129.6023 C   0  0  0  0  0  0  0  0  0  0  0  0
  169.0856  151.6838  127.4778 C   0  0  0  0  0  0  0  0  0  0  0  0
  169.4115  150.3570  126.8823 C   0  0  0  0  0  0  0  0  0  0  0  0
  168.3031  150.0368  125.8903 C   0  0  0  0  0  0  0  0  0  0  0  0
  167.0169  149.7449  126.6281 C   0  0  1  0  0  0  0  0  0  0  0  0
  165.8644  149.9861  125.7034 C   0  0  0  0  0  0  0  0  0  0  0  0
  167.0439  152.9816  127.6456 C   0  0  0  0  0  0  0  0  0  0  0  0
  167.6717  153.8763  127.0381 O   0  0  0  0  0  0  0  0  0  0  0  0
  165.7095  153.1933  127.8954 O   0  0  0  0  0  0  0  0  0  0  0  0
  165.0704  154.4480  127.7793 C   0  0  2  0  0  0  0  0  0  0  0  0
  164.7260  154.8812  129.0359 O   0  0  0  0  0  0  0  0  0  0  0  0
  164.2246  156.1595  129.0227 C   0  0  2  0  0  0  0  0  0  0  0  0
  163.6907  156.4716  130.4095 C   0  0  0  0  0  0  0  0  0  0  0  0
  164.1683  157.6961  130.8255 O   0  0  0  0  0  0  0  0  0  0  0  0
  163.1491  156.3511  128.0039 C   0  0  1  0  0  0  0  0  0  0  0  0
  163.6087  157.0717  126.8959 O   0  0  0  0  0  0  0  0  0  0  0  0
  162.6588  155.0195  127.5208 C   0  0  2  0  0  0  0  0  0  0  0  0
  162.0400  154.2848  128.5366 O   0  0  0  0  0  0  0  0  0  0  0  0
  163.7960  154.2049  126.9761 C   0  0  1  0  0  0  0  0  0  0  0  0
  163.9925  154.4143  125.6126 O   0  0  0  0  0  0  0  0  0  0  0  0
  165.3475  144.5361  127.4074 O   0  0  0  0  0  0  0  0  0  0  0  0
  165.4071  143.7380  126.2940 C   0  0  2  0  0  0  0  0  0  0  0  0
  164.4131  144.2114  125.4329 O   0  0  0  0  0  0  0  0  0  0  0  0
  163.3561  143.3716  125.2385 C   0  0  2  0  0  0  0  0  0  0  0  0
  162.2430  144.2193  124.5954 C   0  0  0  0  0  0  0  0  0  0  0  0
  161.2125  144.4571  125.4974 O   0  0  0  0  0  0  0  0  0  0  0  0
  162.7868  142.8719  126.5291 C   0  0  1  0  0  0  0  0  0  0  0  0
  161.7243  142.0047  126.2771 O   0  0  0  0  0  0  0  0  0  0  0  0
  163.8050  142.3048  127.4603 C   0  0  2  0  0  0  0  0  0  0  0  0
  163.9644  143.1218  128.6037 O   0  0  0  0  0  0  0  0  0  0  0  0
  165.1438  142.3173  126.7570 C   0  0  1  0  0  0  0  0  0  0  0  0
  165.1279  141.4139  125.7143 O   0  0  0  0  0  0  0  0  0  0  0  0
  166.0492  140.3936  125.8078 C   0  0  2  0  0  0  0  0  0  0  0  0
  166.9842  140.8004  126.7592 O   0  0  0  0  0  0  0  0  0  0  0  0
  167.8124  139.8054  127.2104 C   0  0  2  0  0  0  0  0  0  0  0  0
  168.8384  140.4919  128.1246 C   0  0  0  0  0  0  0  0  0  0  0  0
  169.0010  139.6814  129.2389 O   0  0  0  0  0  0  0  0  0  0  0  0
  168.5300  139.1635  126.0670 C   0  0  1  0  0  0  0  0  0  0  0  0
  168.1349  137.8331  125.9481 O   0  0  0  0  0  0  0  0  0  0  0  0
  168.2884  139.9176  124.7959 C   0  0  2  0  0  0  0  0  0  0  0  0
  168.9555  141.1170  124.7293 O   0  0  0  0  0  0  0  0  0  0  0  0
  166.8174  140.1538  124.5313 C   0  0  1  0  0  0  0  0  0  0  0  0
  166.3033  138.9885  123.9622 O   0  0  0  0  0  0  0  0  0  0  0  0
  1  2  1  6
  2  3  1  0
  3  4  1  0
  4  5  1  0
  5  6  1  0
  6  7  1  1
  7  8  1  0
  8  9  2  0
  6 10  1  0
 10 11  1  0
 12 11  1  6
 12 13  1  0
 13 14  1  1
 13 15  1  0
 15 16  1  0
 16 17  1  0
 17 18  1  0
 18 19  1  6
 13 20  1  0
 20 21  2  0
 20 22  1  0
 23 22  1  1
 23 24  1  0
 24 25  1  0
 25 26  1  1
 26 27  1  0
 25 28  1  0
 28 29  1  6
 28 30  1  0
 30 31  1  1
 30 32  1  0
 32 33  1  6
  4 34  1  6
 35 34  1  1
 35 36  1  0
 36 37  1  0
 37 38  1  1
 38 39  1  0
 37 40  1  0
 40 41  1  6
 40 42  1  0
 42 43  1  1
 42 44  1  0
 44 45  1  6
 46 45  1  6
 46 47  1  0
 47 48  1  0
 48 49  1  1
 49 50  1  0
 48 51  1  0
 51 52  1  6
 51 53  1  0
 53 54  1  1
 53 55  1  0
 55 56  1  1
  6  1  1  0
 18 12  1  0
 32 23  1  0
 44 35  1  0
 55 46  1  0
 18  1  1  0
  8  4  1  0
M  END
$$$$
