
     RDKit          3D

 56 62  0  0  0  0  0  0  0  0999 V2000
  183.7907  148.2983  124.4425 C   0  0  2  0  0  0  0  0  0  0  0  0
  182.2784  148.2791  124.5424 C   0  0  0  0  0  0  0  0  0  0  0  0
  181.7685  146.9606  124.0504 C   0  0  0  0  0  0  0  0  0  0  0  0
  182.5965  145.7756  124.5142 C   0  0  2  0  0  0  0  0  0  0  0  0
  183.3271  146.3145  125.7623 C   0  0  0  0  0  0  0  0  0  0  0  0
  184.4346  147.1768  125.1336 C   0  0  1  0  0  0  0  0  0  0  0  0
  184.9652  146.1435  124.1363 C   0  0  0  0  0  0  0  0  0  0  0  0
  183.7135  145.4510  123.6330 C   0  0  0  0  0  0  0  0  0  0  0  0
  183.7750  144.7018  122.5330 C   0  0  0  0  0  0  0  0  0  0  0  0
  185.4066  147.4283  126.2106 C   0  0  0  0  0  0  0  0  0  0  0  0
  185.9892  148.8006  126.3444 C   0  0  0  0  0  0  0  0  0  0  0  0
  185.7933  149.5019  125.0190 C   0  0  2  0  0  0  0  0  0  0  0  0
  186.7280  150.5886  124.7178 C   0  0  1  0  0  0  0  0  0  0  0  0
  188.0969  149.8994  124.4559 C   0  0  0  0  0  0  0  0  0  0  0  0
  186.3597  151.2352  123.3881 C   0  0  0  0  0  0  0  0  0  0  0  0
  185.1617  150.6292  122.7410 C   0  0  0  0  0  0  0  0  0  0  0  0
  184.0428  150.6608  123.7717 C   0  0  0  0  0  0  0  0  0  0  0  0
  184.3340  149.6775  124.8817 C   0  0  1  0  0  0  0  0  0  0  0  0
  183.5818  150.0957  126.1068 C   0  0  0  0  0  0  0  0  0  0  0  0
  186.9949  151.6184  125.6968 C   0  0  0  0  0  0  0  0  0  0  0  0
  187.4625  152.7314  125.3709 O   0  0  0  0  0  0  0  0  0  0  0  0
  186.7339  151.3989  127.0279 O   0  0  0  0  0  0  0  0  0  0  0  0
  187.4646  150.5048  127.8421 C   0  0  2  0  0  0  0  0  0  0  0  0
  187.5883  149.3097  127.1776 O   0  0  0  0  0  0  0  0  0  0  0  0
  188.4067  148.4304  127.8430 C   0  0  2  0  0  0  0  0  0  0  0  0
  188.3212  147.0848  127.1446 C   0  0  0  0  0  0  0  0  0  0  0  0
  188.5984  146.0772  128.0437 O   0  0  0  0  0  0  0  0  0  0  0  0
  188.0496  148.2829  129.2860 C   0  0  1  0  0  0  0  0  0  0  0  0
  188.9573  148.9525  130.1143 O   0  0  0  0  0  0  0  0  0  0  0  0
  186.6856  148.8519  129.5364 C   0  0  2  0  0  0  0  0  0  0  0  0
  185.6864  148.1428  128.8631 O   0  0  0  0  0  0  0  0  0  0  0  0
  186.6236  150.2858  129.0964 C   0  0  1  0  0  0  0  0  0  0  0  0
  186.9714  151.1688  130.1167 O   0  0  0  0  0  0  0  0  0  0  0  0
  181.8415  144.7479  124.9907 O   0  0  0  0  0  0  0  0  0  0  0  0
  180.4929  144.9457  125.1399 C   0  0  2  0  0  0  0  0  0  0  0  0
  180.2985  145.2373  126.4930 O   0  0  0  0  0  0  0  0  0  0  0  0
  179.6278  144.2887  127.2076 C   0  0  2  0  0  0  0  0  0  0  0  0
  179.8608  144.6212  128.6929 C   0  0  0  0  0  0  0  0  0  0  0  0
  180.9454  143.9140  129.1984 O   0  0  0  0  0  0  0  0  0  0  0  0
  180.1998  142.9206  127.0066 C   0  0  1  0  0  0  0  0  0  0  0  0
  179.4698  141.9864  127.7406 O   0  0  0  0  0  0  0  0  0  0  0  0
  180.3739  142.5419  125.5742 C   0  0  2  0  0  0  0  0  0  0  0  0
  181.7430  142.4507  125.2316 O   0  0  0  0  0  0  0  0  0  0  0  0
  179.8106  143.6567  124.7215 C   0  0  1  0  0  0  0  0  0  0  0  0
  178.4402  143.7085  124.8727 O   0  0  0  0  0  0  0  0  0  0  0  0
  177.7185  143.0223  123.9205 C   0  0  2  0  0  0  0  0  0  0  0  0
  178.3704  143.2401  122.7071 O   0  0  0  0  0  0  0  0  0  0  0  0
  177.9823  142.4063  121.6905 C   0  0  2  0  0  0  0  0  0  0  0  0
  178.7072  142.9080  120.4325 C   0  0  0  0  0  0  0  0  0  0  0  0
  178.8980  141.8110  119.6048 O   0  0  0  0  0  0  0  0  0  0  0  0
  176.5063  142.4987  121.4728 C   0  0  1  0  0  0  0  0  0  0  0  0
  175.9068  141.2784  121.7752 O   0  0  0  0  0  0  0  0  0  0  0  0
  175.9167  143.6098  122.2855 C   0  0  2  0  0  0  0  0  0  0  0  0
  176.2118  144.8629  121.8051 O   0  0  0  0  0  0  0  0  0  0  0  0
  176.3097  143.5338  123.7447 C   0  0  1  0  0  0  0  0  0  0  0  0
  175.4638  142.6090  124.3572 O   0  0  0  0  0  0  0  0  0  0  0  0
  1  2  1  1
  2  3  1  0
  3  4  1  0
  4  5  1  0
  5  6  1  0
  6  7  1  6
  7  8  1  0
  8  9  2  0
  6 10  1  0
 10 11  1  0
 12 11  1  1
 12 13  1  0
 13 14  1  6
 13 15  1  0
 15 16  1  0
 16 17  1  0
 17 18  1  0
 18 19  1  1
 13 20  1  0
 20 21  2  0
 20 22  1  0
 23 22  1  6
 23 24  1  0
 24 25  1  0
 25 26  1  6
 26 27  1  0
 25 28  1  0
 28 29  1  1
 28 30  1  0
 30 31  1  6
 30 32  1  0
 32 33  1  1
  4 34  1  1
 35 34  1  1
 35 36  1  0
 36 37  1  0
 37 38  1  1
 38 39  1  0
 37 40  1  0
 40 41  1  6
 40 42  1  0
 42 43  1  6
 42 44  1  0
 44 45  1  1
 46 45  1  1
 46 47  1  0
 47 48  1  0
 48 49  1  6
 49 50  1  0
 48 51  1  0
 51 52  1  1
 51 53  1  0
 53 54  1  6
 53 55  1  0
 55 56  1  1
  6  1  1  0
 18 12  1  0
 32 23  1  0
 44 35  1  0
 55 46  1  0
 18  1  1  0
  8  4  1  0
M  END
$$$$
