
     RDKit          3D

 56 62  0  0  0  0  0  0  0  0999 V2000
  170.5628  147.6925  125.8124 C   0  0  2  0  0  0  0  0  0  0  0  0
  171.7245  148.5891  125.4331 C   0  0  0  0  0  0  0  0  0  0  0  0
  172.9214  147.7432  125.1292 C   0  0  0  0  0  0  0  0  0  0  0  0
  172.5990  146.4994  124.3206 C   0  0  2  0  0  0  0  0  0  0  0  0
  171.2561  146.8485  123.6447 C   0  0  0  0  0  0  0  0  0  0  0  0
  170.2619  146.6709  124.8046 C   0  0  1  0  0  0  0  0  0  0  0  0
  170.7224  145.2858  125.2662 C   0  0  0  0  0  0  0  0  0  0  0  0
  172.2317  145.3431  125.1317 C   0  0  0  0  0  0  0  0  0  0  0  0
  172.9796  144.4164  125.7289 C   0  0  0  0  0  0  0  0  0  0  0  0
  168.9282  146.6113  124.1835 C   0  0  0  0  0  0  0  0  0  0  0  0
  167.8008  147.3503  124.8342 C   0  0  0  0  0  0  0  0  0  0  0  0
  168.2017  147.6060  126.2697 C   0  0  2  0  0  0  0  0  0  0  0  0
  167.1062  147.7953  127.2233 C   0  0  1  0  0  0  0  0  0  0  0  0
  166.4413  146.3982  127.3761 C   0  0  0  0  0  0  0  0  0  0  0  0
  167.6696  148.1087  128.6040 C   0  0  0  0  0  0  0  0  0  0  0  0
  169.1586  148.1580  128.6442 C   0  0  0  0  0  0  0  0  0  0  0  0
  169.5948  149.1374  127.5646 C   0  0  0  0  0  0  0  0  0  0  0  0
  169.3347  148.5494  126.1970 C   0  0  1  0  0  0  0  0  0  0  0  0
  169.2273  149.6650  125.2043 C   0  0  0  0  0  0  0  0  0  0  0  0
  166.0248  148.7075  126.9257 C   0  0  0  0  0  0  0  0  0  0  0  0
  164.8790  148.5475  127.4003 O   0  0  0  0  0  0  0  0  0  0  0  0
  166.2324  149.7906  126.1061 O   0  0  0  0  0  0  0  0  0  0  0  0
  165.6948  151.0762  126.3396 C   0  0  2  0  0  0  0  0  0  0  0  0
  164.8087  151.3693  125.3325 O   0  0  0  0  0  0  0  0  0  0  0  0
  164.1370  152.5450  125.5607 C   0  0  2  0  0  0  0  0  0  0  0  0
  163.3396  152.8830  124.3135 C   0  0  0  0  0  0  0  0  0  0  0  0
  162.1806  152.1370  124.2877 O   0  0  0  0  0  0  0  0  0  0  0  0
  165.0481  153.6763  125.9092 C   0  0  1  0  0  0  0  0  0  0  0  0
  164.9954  153.9812  127.2739 O   0  0  0  0  0  0  0  0  0  0  0  0
  166.4630  153.3176  125.5680 C   0  0  2  0  0  0  0  0  0  0  0  0
  166.6461  153.1428  124.1930 O   0  0  0  0  0  0  0  0  0  0  0  0
  166.8675  152.0495  126.2621 C   0  0  1  0  0  0  0  0  0  0  0  0
  167.4301  152.2871  127.5145 O   0  0  0  0  0  0  0  0  0  0  0  0
  173.4524  146.3014  123.2785 O   0  0  0  0  0  0  0  0  0  0  0  0
  174.5487  145.5024  123.4779 C   0  0  2  0  0  0  0  0  0  0  0  0
  175.5539  146.3479  123.9558 O   0  0  0  0  0  0  0  0  0  0  0  0
  176.6046  146.5478  123.1094 C   0  0  2  0  0  0  0  0  0  0  0  0
  177.3708  147.7682  123.6520 C   0  0  0  0  0  0  0  0  0  0  0  0
  176.9440  148.9393  123.0369 O   0  0  0  0  0  0  0  0  0  0  0  0
  176.1570  146.9321  121.7341 C   0  0  1  0  0  0  0  0  0  0  0  0
  177.2639  147.1057  120.9040 O   0  0  0  0  0  0  0  0  0  0  0  0
  175.1226  146.0242  121.1586 C   0  0  2  0  0  0  0  0  0  0  0  0
  173.8756  146.6805  121.0376 O   0  0  0  0  0  0  0  0  0  0  0  0
  174.8971  144.8906  122.1339 C   0  0  1  0  0  0  0  0  0  0  0  0
  176.0233  144.0956  122.1888 O   0  0  0  0  0  0  0  0  0  0  0  0
  175.7832  142.7477  122.3439 C   0  0  2  0  0  0  0  0  0  0  0  0
  175.5221  142.5532  123.6999 O   0  0  0  0  0  0  0  0  0  0  0  0
  174.9711  141.3363  124.0084 C   0  0  2  0  0  0  0  0  0  0  0  0
  174.9031  141.2799  125.5420 C   0  0  0  0  0  0  0  0  0  0  0  0
  174.1423  142.3629  125.9583 O   0  0  0  0  0  0  0  0  0  0  0  0
  175.8446  140.2271  123.5174 C   0  0  1  0  0  0  0  0  0  0  0  0
  175.1794  139.5033  122.5306 O   0  0  0  0  0  0  0  0  0  0  0  0
  177.1498  140.7605  123.0131 C   0  0  2  0  0  0  0  0  0  0  0  0
  177.9974  141.1808  124.0096 O   0  0  0  0  0  0  0  0  0  0  0  0
  176.9714  141.8795  122.0103 C   0  0  1  0  0  0  0  0  0  0  0  0
  176.7091  141.2925  120.7723 O   0  0  0  0  0  0  0  0  0  0  0  0
  1  2  1  6
  2  3  1  0
  3  4  1  0
  4  5  1  0
  5  6  1  0
  6  7  1  1
  7  8  1  0
  8  9  2  0
  6 10  1  0
 10 11  1  0
 12 11  1  6
 12 13  1  0
 13 14  1  1
 13 15  1  0
 15 16  1  0
 16 17  1  0
 17 18  1  0
 18 19  1  6
 13 20  1  0
 20 21  2  0
 20 22  1  0
 23 22  1  6
 23 24  1  0
 24 25  1  0
 25 26  1  6
 26 27  1  0
 25 28  1  0
 28 29  1  1
 28 30  1  0
 30 31  1  6
 30 32  1  0
 32 33  1  1
  4 34  1  6
 35 34  1  6
 35 36  1  0
 36 37  1  0
 37 38  1  1
 38 39  1  0
 37 40  1  0
 40 41  1  6
 40 42  1  0
 42 43  1  1
 42 44  1  0
 44 45  1  1
 46 45  1  1
 46 47  1  0
 47 48  1  0
 48 49  1  1
 49 50  1  0
 48 51  1  0
 51 52  1  6
 51 53  1  0
 53 54  1  1
 53 55  1  0
 55 56  1  6
  6  1  1  0
 18 12  1  0
 32 23  1  0
 44 35  1  0
 55 46  1  0
 18  1  1  0
  8  4  1  0
M  END
$$$$
