
     RDKit          3D

 56 62  0  0  0  0  0  0  0  0999 V2000
  117.2918  148.7349  156.9530 C   0  0  2  0  0  0  0  0  0  0  0  0
  116.2612  149.8124  156.6801 C   0  0  0  0  0  0  0  0  0  0  0  0
  115.8632  149.7600  155.2381 C   0  0  0  0  0  0  0  0  0  0  0  0
  115.6768  148.3494  154.7083 C   0  0  2  0  0  0  0  0  0  0  0  0
  115.4294  147.5164  155.9838 C   0  0  0  0  0  0  0  0  0  0  0  0
  116.8492  147.3928  156.5620 C   0  0  1  0  0  0  0  0  0  0  0  0
  117.5559  146.9269  155.2863 C   0  0  0  0  0  0  0  0  0  0  0  0
  116.8993  147.7438  154.1904 C   0  0  0  0  0  0  0  0  0  0  0  0
  117.4741  147.8147  152.9905 C   0  0  0  0  0  0  0  0  0  0  0  0
  116.7825  146.3130  157.5608 C   0  0  0  0  0  0  0  0  0  0  0  0
  117.4966  146.4963  158.8634 C   0  0  0  0  0  0  0  0  0  0  0  0
  118.5347  147.5766  158.6574 C   0  0  2  0  0  0  0  0  0  0  0  0
  119.6863  147.5480  159.5619 C   0  0  1  0  0  0  0  0  0  0  0  0
  120.5131  146.2994  159.1436 C   0  0  0  0  0  0  0  0  0  0  0  0
  120.6011  148.7321  159.2737 C   0  0  0  0  0  0  0  0  0  0  0  0
  120.1076  149.6152  158.1792 C   0  0  0  0  0  0  0  0  0  0  0  0
  118.6842  150.0112  158.5426 C   0  0  0  0  0  0  0  0  0  0  0  0
  117.7677  148.8158  158.4217 C   0  0  1  0  0  0  0  0  0  0  0  0
  116.5625  149.0425  159.2806 C   0  0  0  0  0  0  0  0  0  0  0  0
  119.4943  147.4238  160.9895 C   0  0  0  0  0  0  0  0  0  0  0  0
  119.4743  148.4233  161.7406 O   0  0  0  0  0  0  0  0  0  0  0  0
  119.3223  146.1878  161.5645 O   0  0  0  0  0  0  0  0  0  0  0  0
  120.3000  145.5349  162.3481 C   0  0  2  0  0  0  0  0  0  0  0  0
  119.7814  144.3430  162.7906 O   0  0  0  0  0  0  0  0  0  0  0  0
  120.7190  143.5822  163.4445 C   0  0  2  0  0  0  0  0  0  0  0  0
  120.0110  142.3908  164.0651 C   0  0  0  0  0  0  0  0  0  0  0  0
  119.5126  141.5776  163.0698 O   0  0  0  0  0  0  0  0  0  0  0  0
  121.4559  144.3456  164.4960 C   0  0  1  0  0  0  0  0  0  0  0  0
  122.7549  144.6675  164.0867 O   0  0  0  0  0  0  0  0  0  0  0  0
  120.7348  145.6241  164.8002 C   0  0  2  0  0  0  0  0  0  0  0  0
  119.4747  145.3983  165.3621 O   0  0  0  0  0  0  0  0  0  0  0  0
  120.5549  146.4378  163.5515 C   0  0  1  0  0  0  0  0  0  0  0  0
  121.6176  147.3116  163.3306 O   0  0  0  0  0  0  0  0  0  0  0  0
  114.5336  148.1951  153.9854 O   0  0  0  0  0  0  0  0  0  0  0  0
  114.2542  146.9573  153.4659 C   0  0  2  0  0  0  0  0  0  0  0  0
  114.2746  147.1141  152.0771 O   0  0  0  0  0  0  0  0  0  0  0  0
  113.0687  146.9826  151.4536 C   0  0  2  0  0  0  0  0  0  0  0  0
  113.2494  147.5581  150.0369 C   0  0  0  0  0  0  0  0  0  0  0  0
  113.2218  148.9477  150.0554 O   0  0  0  0  0  0  0  0  0  0  0  0
  112.0066  147.8190  152.0956 C   0  0  1  0  0  0  0  0  0  0  0  0
  110.7920  147.6355  151.4359 O   0  0  0  0  0  0  0  0  0  0  0  0
  111.9093  147.6435  153.5739 C   0  0  2  0  0  0  0  0  0  0  0  0
  112.3220  148.8114  154.2563 O   0  0  0  0  0  0  0  0  0  0  0  0
  112.8839  146.5623  153.9839 C   0  0  1  0  0  0  0  0  0  0  0  0
  112.4607  145.3454  153.4904 O   0  0  0  0  0  0  0  0  0  0  0  0
  111.9582  144.4732  154.4313 C   0  0  2  0  0  0  0  0  0  0  0  0
  113.0540  144.0191  155.1646 O   0  0  0  0  0  0  0  0  0  0  0  0
  112.7350  143.3754  156.3322 C   0  0  2  0  0  0  0  0  0  0  0  0
  114.0605  142.8412  156.8958 C   0  0  0  0  0  0  0  0  0  0  0  0
  114.0761  143.1332  158.2520 O   0  0  0  0  0  0  0  0  0  0  0  0
  111.8203  142.2245  156.0620 C   0  0  1  0  0  0  0  0  0  0  0  0
  110.5826  142.4545  156.6581 O   0  0  0  0  0  0  0  0  0  0  0  0
  111.6790  141.9910  154.5895 C   0  0  2  0  0  0  0  0  0  0  0  0
  112.7912  141.4300  154.0095 O   0  0  0  0  0  0  0  0  0  0  0  0
  111.3082  143.2489  153.8348 C   0  0  1  0  0  0  0  0  0  0  0  0
  109.9296  143.4203  153.9610 O   0  0  0  0  0  0  0  0  0  0  0  0
  1  2  1  1
  2  3  1  0
  3  4  1  0
  4  5  1  0
  5  6  1  0
  6  7  1  6
  7  8  1  0
  8  9  2  0
  6 10  1  0
 10 11  1  0
 12 11  1  1
 12 13  1  0
 13 14  1  6
 13 15  1  0
 15 16  1  0
 16 17  1  0
 17 18  1  0
 18 19  1  1
 13 20  1  0
 20 21  2  0
 20 22  1  0
 23 22  1  6
 23 24  1  0
 24 25  1  0
 25 26  1  1
 26 27  1  0
 25 28  1  0
 28 29  1  6
 28 30  1  0
 30 31  1  6
 30 32  1  0
 32 33  1  6
  4 34  1  6
 35 34  1  1
 35 36  1  0
 36 37  1  0
 37 38  1  6
 38 39  1  0
 37 40  1  0
 40 41  1  6
 40 42  1  0
 42 43  1  1
 42 44  1  0
 44 45  1  6
 46 45  1  6
 46 47  1  0
 47 48  1  0
 48 49  1  6
 49 50  1  0
 48 51  1  0
 51 52  1  6
 51 53  1  0
 53 54  1  6
 53 55  1  0
 55 56  1  1
  6  1  1  0
 18 12  1  0
 32 23  1  0
 44 35  1  0
 55 46  1  0
 18  1  1  0
  8  4  1  0
M  END
$$$$
