
     RDKit          3D

 56 62  0  0  0  0  0  0  0  0999 V2000
  203.4965  135.4643  131.6608 C   0  0  2  0  0  0  0  0  0  0  0  0
  203.6053  134.3633  130.6246 C   0  0  0  0  0  0  0  0  0  0  0  0
  203.9732  133.0814  131.3042 C   0  0  0  0  0  0  0  0  0  0  0  0
  203.2374  132.8522  132.6123 C   0  0  2  0  0  0  0  0  0  0  0  0
  201.9883  133.7495  132.4837 C   0  0  0  0  0  0  0  0  0  0  0  0
  202.5723  135.1464  132.7538 C   0  0  1  0  0  0  0  0  0  0  0  0
  203.3314  134.8118  134.0405 C   0  0  0  0  0  0  0  0  0  0  0  0
  203.9011  133.4316  133.7757 C   0  0  0  0  0  0  0  0  0  0  0  0
  204.8657  132.9575  134.5628 C   0  0  0  0  0  0  0  0  0  0  0  0
  201.4171  136.0178  133.0261 C   0  0  0  0  0  0  0  0  0  0  0  0
  201.3979  137.3902  132.4287 C   0  0  0  0  0  0  0  0  0  0  0  0
  202.8228  137.7395  132.0621 C   0  0  2  0  0  0  0  0  0  0  0  0
  203.1412  139.1674  131.9918 C   0  0  1  0  0  0  0  0  0  0  0  0
  203.1116  139.6733  133.4617 C   0  0  0  0  0  0  0  0  0  0  0  0
  204.5866  139.3547  131.5472 C   0  0  0  0  0  0  0  0  0  0  0  0
  205.3018  138.0735  131.2863 C   0  0  0  0  0  0  0  0  0  0  0  0
  204.4509  137.2888  130.2987 C   0  0  0  0  0  0  0  0  0  0  0  0
  203.1843  136.8125  130.9715 C   0  0  1  0  0  0  0  0  0  0  0  0
  202.1462  136.5598  129.9227 C   0  0  0  0  0  0  0  0  0  0  0  0
  202.2890  140.0730  131.2542 C   0  0  0  0  0  0  0  0  0  0  0  0
  201.0828  140.2264  131.5457 O   0  0  0  0  0  0  0  0  0  0  0  0
  202.7909  140.8011  130.2026 O   0  0  0  0  0  0  0  0  0  0  0  0
  202.2561  142.0334  129.7647 C   0  0  2  0  0  0  0  0  0  0  0  0
  202.1138  141.9881  128.3998 O   0  0  0  0  0  0  0  0  0  0  0  0
  201.4687  143.0970  127.9100 C   0  0  2  0  0  0  0  0  0  0  0  0
  201.5378  143.0522  126.3939 C   0  0  0  0  0  0  0  0  0  0  0  0
  200.4751  142.3243  125.9026 O   0  0  0  0  0  0  0  0  0  0  0  0
  202.0517  144.3772  128.4125 C   0  0  1  0  0  0  0  0  0  0  0  0
  201.2381  144.9695  129.3849 O   0  0  0  0  0  0  0  0  0  0  0  0
  203.3960  144.1221  129.0246 C   0  0  2  0  0  0  0  0  0  0  0  0
  204.3263  143.6690  128.0845 O   0  0  0  0  0  0  0  0  0  0  0  0
  203.2921  143.0971  130.1164 C   0  0  1  0  0  0  0  0  0  0  0  0
  203.0453  143.6721  131.3614 O   0  0  0  0  0  0  0  0  0  0  0  0
  202.7306  131.5941  132.7289 O   0  0  0  0  0  0  0  0  0  0  0  0
  203.0863  130.6596  131.7906 C   0  0  2  0  0  0  0  0  0  0  0  0
  202.0578  130.6602  130.8441 O   0  0  0  0  0  0  0  0  0  0  0  0
  201.2963  129.5293  130.8040 C   0  0  2  0  0  0  0  0  0  0  0  0
  200.0337  129.8866  129.9981 C   0  0  0  0  0  0  0  0  0  0  0  0
  199.0970  130.5309  130.7978 O   0  0  0  0  0  0  0  0  0  0  0  0
  200.8080  129.1285  132.1606 C   0  0  1  0  0  0  0  0  0  0  0  0
  200.0529  127.9599  132.0692 O   0  0  0  0  0  0  0  0  0  0  0  0
  201.8817  129.0597  133.1942 C   0  0  2  0  0  0  0  0  0  0  0  0
  201.7282  130.0808  134.1605 O   0  0  0  0  0  0  0  0  0  0  0  0
  203.2054  129.3322  132.5155 C   0  0  1  0  0  0  0  0  0  0  0  0
  203.5140  128.2896  131.6662 O   0  0  0  0  0  0  0  0  0  0  0  0
  204.4781  127.4210  132.1292 C   0  0  2  0  0  0  0  0  0  0  0  0
  205.7027  127.9407  131.7106 O   0  0  0  0  0  0  0  0  0  0  0  0
  206.7987  127.3862  132.3195 C   0  0  2  0  0  0  0  0  0  0  0  0
  208.0234  127.9909  131.6168 C   0  0  0  0  0  0  0  0  0  0  0  0
  209.0713  127.0958  131.7774 O   0  0  0  0  0  0  0  0  0  0  0  0
  206.8089  125.9037  132.1286 C   0  0  1  0  0  0  0  0  0  0  0  0
  206.6636  125.2677  133.3593 O   0  0  0  0  0  0  0  0  0  0  0  0
  205.7381  125.4828  131.1700 C   0  0  2  0  0  0  0  0  0  0  0  0
  206.0128  125.7983  129.8611 O   0  0  0  0  0  0  0  0  0  0  0  0
  204.3788  126.0363  131.5379 C   0  0  1  0  0  0  0  0  0  0  0  0
  203.8460  125.2105  132.5280 O   0  0  0  0  0  0  0  0  0  0  0  0
  1  2  1  6
  2  3  1  0
  3  4  1  0
  4  5  1  0
  5  6  1  0
  6  7  1  1
  7  8  1  0
  8  9  2  0
  6 10  1  0
 10 11  1  0
 12 11  1  6
 12 13  1  0
 13 14  1  1
 13 15  1  0
 15 16  1  0
 16 17  1  0
 17 18  1  0
 18 19  1  6
 13 20  1  0
 20 21  2  0
 20 22  1  0
 23 22  1  6
 23 24  1  0
 24 25  1  0
 25 26  1  6
 26 27  1  0
 25 28  1  0
 28 29  1  1
 28 30  1  0
 30 31  1  6
 30 32  1  0
 32 33  1  1
  4 34  1  1
 35 34  1  1
 35 36  1  0
 36 37  1  0
 37 38  1  6
 38 39  1  0
 37 40  1  0
 40 41  1  6
 40 42  1  0
 42 43  1  1
 42 44  1  0
 44 45  1  6
 46 45  1  6
 46 47  1  0
 47 48  1  0
 48 49  1  6
 49 50  1  0
 48 51  1  0
 51 52  1  1
 51 53  1  0
 53 54  1  6
 53 55  1  0
 55 56  1  1
  6  1  1  0
 18 12  1  0
 32 23  1  0
 44 35  1  0
 55 46  1  0
 18  1  1  0
  8  4  1  0
M  END
$$$$
