
     RDKit          3D

 56 62  0  0  0  0  0  0  0  0999 V2000
  106.5069  164.6787  156.0401 C   0  0  2  0  0  0  0  0  0  0  0  0
  106.8341  164.7627  157.5177 C   0  0  0  0  0  0  0  0  0  0  0  0
  106.4225  166.1044  158.0383 C   0  0  0  0  0  0  0  0  0  0  0  0
  105.0815  166.5787  157.5076 C   0  0  2  0  0  0  0  0  0  0  0  0
  104.3881  165.2728  157.0649 C   0  0  0  0  0  0  0  0  0  0  0  0
  105.1021  164.9694  155.7369 C   0  0  1  0  0  0  0  0  0  0  0  0
  104.9489  166.3509  155.0953 C   0  0  0  0  0  0  0  0  0  0  0  0
  105.1673  167.3112  156.2484 C   0  0  0  0  0  0  0  0  0  0  0  0
  105.4029  168.5979  155.9954 C   0  0  0  0  0  0  0  0  0  0  0  0
  104.2677  163.9672  155.0533 C   0  0  0  0  0  0  0  0  0  0  0  0
  104.9423  162.8225  154.3640 C   0  0  0  0  0  0  0  0  0  0  0  0
  106.3794  163.2275  154.1245 C   0  0  2  0  0  0  0  0  0  0  0  0
  107.0658  162.5541  153.0197 C   0  0  1  0  0  0  0  0  0  0  0  0
  106.4118  163.1097  151.7231 C   0  0  0  0  0  0  0  0  0  0  0  0
  108.5157  163.0178  152.9509 C   0  0  0  0  0  0  0  0  0  0  0  0
  108.8766  164.0076  154.0050 C   0  0  0  0  0  0  0  0  0  0  0  0
  108.4913  163.3877  155.3400 C   0  0  0  0  0  0  0  0  0  0  0  0
  106.9867  163.3255  155.4665 C   0  0  1  0  0  0  0  0  0  0  0  0
  106.6288  162.2583  156.4537 C   0  0  0  0  0  0  0  0  0  0  0  0
  107.0136  161.1149  152.8927 C   0  0  0  0  0  0  0  0  0  0  0  0
  108.0370  160.4061  153.0104 O   0  0  0  0  0  0  0  0  0  0  0  0
  105.8212  160.4804  152.6404 O   0  0  0  0  0  0  0  0  0  0  0  0
  105.2487  160.3504  151.3553 C   0  0  2  0  0  0  0  0  0  0  0  0
  105.7699  161.3274  150.5434 O   0  0  0  0  0  0  0  0  0  0  0  0
  105.3690  161.1831  149.2380 C   0  0  2  0  0  0  0  0  0  0  0  0
  105.8248  162.4085  148.4659 C   0  0  0  0  0  0  0  0  0  0  0  0
  105.1633  163.5239  148.9336 O   0  0  0  0  0  0  0  0  0  0  0  0
  103.8918  161.0099  149.0998 C   0  0  1  0  0  0  0  0  0  0  0  0
  103.5513  159.6837  148.8106 O   0  0  0  0  0  0  0  0  0  0  0  0
  103.2094  161.3964  150.3773 C   0  0  2  0  0  0  0  0  0  0  0  0
  103.3681  162.7541  150.6704 O   0  0  0  0  0  0  0  0  0  0  0  0
  103.7531  160.5994  151.5274 C   0  0  1  0  0  0  0  0  0  0  0  0
  103.0485  159.4147  151.7313 O   0  0  0  0  0  0  0  0  0  0  0  0
  104.2656  167.0739  158.4784 O   0  0  0  0  0  0  0  0  0  0  0  0
  104.8057  167.9181  159.4143 C   0  0  2  0  0  0  0  0  0  0  0  0
  105.4123  167.0931  160.3657 O   0  0  0  0  0  0  0  0  0  0  0  0
  104.8224  167.0827  161.5954 C   0  0  2  0  0  0  0  0  0  0  0  0
  105.3938  165.8612  162.3387 C   0  0  0  0  0  0  0  0  0  0  0  0
  104.6434  165.5709  163.4721 O   0  0  0  0  0  0  0  0  0  0  0  0
  103.3466  166.8493  161.5120 C   0  0  1  0  0  0  0  0  0  0  0  0
  102.7885  166.8668  162.7898 O   0  0  0  0  0  0  0  0  0  0  0  0
  102.6456  167.7465  160.5481 C   0  0  2  0  0  0  0  0  0  0  0  0
  102.1612  167.0223  159.4340 O   0  0  0  0  0  0  0  0  0  0  0  0
  103.6581  168.7237  159.9939 C   0  0  1  0  0  0  0  0  0  0  0  0
  104.0652  169.5849  160.9919 O   0  0  0  0  0  0  0  0  0  0  0  0
  103.4459  170.8158  160.9937 C   0  0  2  0  0  0  0  0  0  0  0  0
  103.8205  171.4408  159.8046 O   0  0  0  0  0  0  0  0  0  0  0  0
  103.0779  172.5466  159.4801 C   0  0  2  0  0  0  0  0  0  0  0  0
  103.7426  173.1512  158.2343 C   0  0  0  0  0  0  0  0  0  0  0  0
  105.1079  172.9341  158.3524 O   0  0  0  0  0  0  0  0  0  0  0  0
  103.1183  173.5478  160.5894 C   0  0  1  0  0  0  0  0  0  0  0  0
  101.8448  173.7042  161.1314 O   0  0  0  0  0  0  0  0  0  0  0  0
  104.1084  173.1420  161.6370 C   0  0  2  0  0  0  0  0  0  0  0  0
  105.4177  173.3014  161.2516 O   0  0  0  0  0  0  0  0  0  0  0  0
  103.9018  171.7204  162.1121 C   0  0  1  0  0  0  0  0  0  0  0  0
  102.8773  171.7414  163.0588 O   0  0  0  0  0  0  0  0  0  0  0  0
  1  2  1  1
  2  3  1  0
  3  4  1  0
  4  5  1  0
  5  6  1  0
  6  7  1  6
  7  8  1  0
  8  9  2  0
  6 10  1  0
 10 11  1  0
 12 11  1  1
 12 13  1  0
 13 14  1  6
 13 15  1  0
 15 16  1  0
 16 17  1  0
 17 18  1  0
 18 19  1  1
 13 20  1  0
 20 21  2  0
 20 22  1  0
 23 22  1  1
 23 24  1  0
 24 25  1  0
 25 26  1  6
 26 27  1  0
 25 28  1  0
 28 29  1  1
 28 30  1  0
 30 31  1  1
 30 32  1  0
 32 33  1  6
  4 34  1  1
 35 34  1  6
 35 36  1  0
 36 37  1  0
 37 38  1  1
 38 39  1  0
 37 40  1  0
 40 41  1  1
 40 42  1  0
 42 43  1  6
 42 44  1  0
 44 45  1  1
 46 45  1  1
 46 47  1  0
 47 48  1  0
 48 49  1  6
 49 50  1  0
 48 51  1  0
 51 52  1  1
 51 53  1  0
 53 54  1  6
 53 55  1  0
 55 56  1  1
  6  1  1  0
 18 12  1  0
 32 23  1  0
 44 35  1  0
 55 46  1  0
 18  1  1  0
  8  4  1  0
M  END
$$$$
