
     RDKit          3D

 56 62  0  0  0  0  0  0  0  0999 V2000
  185.6845  162.2478  139.0182 C   0  0  2  0  0  0  0  0  0  0  0  0
  185.5113  163.4161  138.0681 C   0  0  0  0  0  0  0  0  0  0  0  0
  185.6091  162.9234  136.6580 C   0  0  0  0  0  0  0  0  0  0  0  0
  184.8860  161.6098  136.4200 C   0  0  2  0  0  0  0  0  0  0  0  0
  183.8630  161.5488  137.5740 C   0  0  0  0  0  0  0  0  0  0  0  0
  184.7508  161.1463  138.7636 C   0  0  1  0  0  0  0  0  0  0  0  0
  185.4605  159.9605  138.1048 C   0  0  0  0  0  0  0  0  0  0  0  0
  185.7009  160.4280  136.6824 C   0  0  0  0  0  0  0  0  0  0  0  0
  186.5628  159.7670  135.9110 C   0  0  0  0  0  0  0  0  0  0  0  0
  183.8274  160.6973  139.8189 C   0  0  0  0  0  0  0  0  0  0  0  0
  184.0922  161.1193  141.2304 C   0  0  0  0  0  0  0  0  0  0  0  0
  185.5457  161.5288  141.3106 C   0  0  2  0  0  0  0  0  0  0  0  0
  186.1699  161.4431  142.6329 C   0  0  1  0  0  0  0  0  0  0  0  0
  186.3034  159.9232  142.9323 C   0  0  0  0  0  0  0  0  0  0  0  0
  187.6048  161.9510  142.5624 C   0  0  0  0  0  0  0  0  0  0  0  0
  188.0091  162.4115  141.2038 C   0  0  0  0  0  0  0  0  0  0  0  0
  186.9722  163.4326  140.7597 C   0  0  0  0  0  0  0  0  0  0  0  0
  185.6553  162.7454  140.4817 C   0  0  1  0  0  0  0  0  0  0  0  0
  184.5518  163.7502  140.6007 C   0  0  0  0  0  0  0  0  0  0  0  0
  185.5148  162.0090  143.7908 C   0  0  0  0  0  0  0  0  0  0  0  0
  185.7102  163.1922  144.1451 O   0  0  0  0  0  0  0  0  0  0  0  0
  184.6457  161.2522  144.5391 O   0  0  0  0  0  0  0  0  0  0  0  0
  184.7031  159.8439  144.6371 C   0  0  2  0  0  0  0  0  0  0  0  0
  183.4419  159.3398  144.4355 O   0  0  0  0  0  0  0  0  0  0  0  0
  183.4369  157.9679  144.3758 C   0  0  2  0  0  0  0  0  0  0  0  0
  181.9920  157.5015  144.3541 C   0  0  0  0  0  0  0  0  0  0  0  0
  181.3283  158.0965  143.3025 O   0  0  0  0  0  0  0  0  0  0  0  0
  184.1633  157.3342  145.5169 C   0  0  1  0  0  0  0  0  0  0  0  0
  185.4088  156.8327  145.1226 O   0  0  0  0  0  0  0  0  0  0  0  0
  184.3915  158.3431  146.6019 C   0  0  2  0  0  0  0  0  0  0  0  0
  183.1935  158.7911  147.1663 O   0  0  0  0  0  0  0  0  0  0  0  0
  185.1344  159.5331  146.0674 C   0  0  1  0  0  0  0  0  0  0  0  0
  186.5161  159.3870  146.1740 O   0  0  0  0  0  0  0  0  0  0  0  0
  184.1173  161.6171  135.2964 O   0  0  0  0  0  0  0  0  0  0  0  0
  183.0537  160.7543  135.2299 C   0  0  2  0  0  0  0  0  0  0  0  0
  183.6060  159.4820  135.0579 O   0  0  0  0  0  0  0  0  0  0  0  0
  183.3780  158.9021  133.8447 C   0  0  2  0  0  0  0  0  0  0  0  0
  184.3648  157.7250  133.7357 C   0  0  0  0  0  0  0  0  0  0  0  0
  185.6306  158.1673  133.3695 O   0  0  0  0  0  0  0  0  0  0  0  0
  183.7150  159.8165  132.7091 C   0  0  1  0  0  0  0  0  0  0  0  0
  183.4471  159.1865  131.4943 O   0  0  0  0  0  0  0  0  0  0  0  0
  183.1011  161.1716  132.8206 C   0  0  2  0  0  0  0  0  0  0  0  0
  184.0844  162.1618  133.0499 O   0  0  0  0  0  0  0  0  0  0  0  0
  182.2116  161.1853  134.0437 C   0  0  1  0  0  0  0  0  0  0  0  0
  181.1256  160.3600  133.8362 O   0  0  0  0  0  0  0  0  0  0  0  0
  179.8977  160.9310  134.0900 C   0  0  2  0  0  0  0  0  0  0  0  0
  180.0945  162.3110  134.0470 O   0  0  0  0  0  0  0  0  0  0  0  0
  178.9430  163.0521  133.9807 C   0  0  2  0  0  0  0  0  0  0  0  0
  179.3793  164.5210  134.0881 C   0  0  0  0  0  0  0  0  0  0  0  0
  179.4996  164.8148  135.4388 O   0  0  0  0  0  0  0  0  0  0  0  0
  178.0435  162.7248  135.1288 C   0  0  1  0  0  0  0  0  0  0  0  0
  176.8724  162.1354  134.6586 O   0  0  0  0  0  0  0  0  0  0  0  0
  178.7397  161.8385  136.1149 C   0  0  2  0  0  0  0  0  0  0  0  0
  179.6956  162.4850  136.8608 O   0  0  0  0  0  0  0  0  0  0  0  0
  179.3591  160.6204  135.4650 C   0  0  1  0  0  0  0  0  0  0  0  0
  178.3462  159.6756  135.2992 O   0  0  0  0  0  0  0  0  0  0  0  0
  1  2  1  6
  2  3  1  0
  3  4  1  0
  4  5  1  0
  5  6  1  0
  6  7  1  6
  7  8  1  0
  8  9  2  0
  6 10  1  0
 10 11  1  0
 12 11  1  1
 12 13  1  0
 13 14  1  1
 13 15  1  0
 15 16  1  0
 16 17  1  0
 17 18  1  0
 18 19  1  6
 13 20  1  0
 20 21  2  0
 20 22  1  0
 23 22  1  1
 23 24  1  0
 24 25  1  0
 25 26  1  1
 26 27  1  0
 25 28  1  0
 28 29  1  6
 28 30  1  0
 30 31  1  6
 30 32  1  0
 32 33  1  6
  4 34  1  6
 35 34  1  6
 35 36  1  0
 36 37  1  0
 37 38  1  6
 38 39  1  0
 37 40  1  0
 40 41  1  6
 40 42  1  0
 42 43  1  1
 42 44  1  0
 44 45  1  6
 46 45  1  1
 46 47  1  0
 47 48  1  0
 48 49  1  1
 49 50  1  0
 48 51  1  0
 51 52  1  6
 51 53  1  0
 53 54  1  6
 53 55  1  0
 55 56  1  6
  6  1  1  0
 18 12  1  0
 32 23  1  0
 44 35  1  0
 55 46  1  0
 18  1  1  0
  8  4  1  0
M  END
$$$$
