
     RDKit          3D

 56 62  0  0  0  0  0  0  0  0999 V2000
  173.8126  164.6451  108.9293 C   0  0  2  0  0  0  0  0  0  0  0  0
  173.6279  163.4037  108.0793 C   0  0  0  0  0  0  0  0  0  0  0  0
  174.1836  163.6551  106.7123 C   0  0  0  0  0  0  0  0  0  0  0  0
  175.5025  164.4071  106.7196 C   0  0  2  0  0  0  0  0  0  0  0  0
  176.0538  164.1517  108.1383 C   0  0  0  0  0  0  0  0  0  0  0  0
  175.2018  165.1106  108.9868 C   0  0  1  0  0  0  0  0  0  0  0  0
  175.3983  166.3713  108.1408 C   0  0  0  0  0  0  0  0  0  0  0  0
  175.3575  165.8592  106.7140 C   0  0  0  0  0  0  0  0  0  0  0  0
  175.1962  166.7216  105.7114 C   0  0  0  0  0  0  0  0  0  0  0  0
  175.8939  165.2226  110.2815 C   0  0  0  0  0  0  0  0  0  0  0  0
  175.0763  165.2059  111.5352 C   0  0  0  0  0  0  0  0  0  0  0  0
  173.6575  165.5596  111.1499 C   0  0  2  0  0  0  0  0  0  0  0  0
  172.8255  166.1395  112.2067 C   0  0  1  0  0  0  0  0  0  0  0  0
  173.3987  167.5637  112.4531 C   0  0  0  0  0  0  0  0  0  0  0  0
  171.4138  166.3757  111.6839 C   0  0  0  0  0  0  0  0  0  0  0  0
  171.2246  165.9580  110.2658 C   0  0  0  0  0  0  0  0  0  0  0  0
  171.6824  164.5101  110.1698 C   0  0  0  0  0  0  0  0  0  0  0  0
  173.1835  164.4307  110.3252 C   0  0  1  0  0  0  0  0  0  0  0  0
  173.5491  163.0534  110.7843 C   0  0  0  0  0  0  0  0  0  0  0  0
  172.7589  165.5188  113.5107 C   0  0  0  0  0  0  0  0  0  0  0  0
  171.9389  165.8937  114.3772 O   0  0  0  0  0  0  0  0  0  0  0  0
  173.6033  164.4842  113.8340 O   0  0  0  0  0  0  0  0  0  0  0  0
  173.4173  163.1481  113.4139 C   0  0  2  0  0  0  0  0  0  0  0  0
  172.0718  162.8743  113.4098 O   0  0  0  0  0  0  0  0  0  0  0  0
  171.7974  161.6380  112.8788 C   0  0  2  0  0  0  0  0  0  0  0  0
  170.3240  161.3455  113.1001 C   0  0  0  0  0  0  0  0  0  0  0  0
  169.5730  161.9994  112.1467 O   0  0  0  0  0  0  0  0  0  0  0  0
  172.6313  160.5515  113.4751 C   0  0  1  0  0  0  0  0  0  0  0  0
  173.6394  160.1335  112.5993 O   0  0  0  0  0  0  0  0  0  0  0  0
  173.2827  161.0390  114.7341 C   0  0  2  0  0  0  0  0  0  0  0  0
  172.3484  161.3381  115.7301 O   0  0  0  0  0  0  0  0  0  0  0  0
  174.0946  162.2725  114.4641 C   0  0  1  0  0  0  0  0  0  0  0  0
  175.4124  161.9754  114.1224 O   0  0  0  0  0  0  0  0  0  0  0  0
  176.4376  163.8571  105.8971 O   0  0  0  0  0  0  0  0  0  0  0  0
  176.7679  164.5270  104.7473 C   0  0  2  0  0  0  0  0  0  0  0  0
  175.7897  164.1807  103.8109 O   0  0  0  0  0  0  0  0  0  0  0  0
  176.2196  163.4113  102.7699 C   0  0  2  0  0  0  0  0  0  0  0  0
  174.9543  162.8446  102.0998 C   0  0  0  0  0  0  0  0  0  0  0  0
  174.3604  161.8727  102.8964 O   0  0  0  0  0  0  0  0  0  0  0  0
  176.9986  162.2201  103.2319 C   0  0  1  0  0  0  0  0  0  0  0  0
  177.4310  161.4783  102.1332 O   0  0  0  0  0  0  0  0  0  0  0  0
  178.0924  162.5475  104.1920 C   0  0  2  0  0  0  0  0  0  0  0  0
  177.8090  162.0428  105.4824 O   0  0  0  0  0  0  0  0  0  0  0  0
  178.1507  164.0512  104.3430 C   0  0  1  0  0  0  0  0  0  0  0  0
  178.5831  164.6191  103.1623 O   0  0  0  0  0  0  0  0  0  0  0  0
  179.9496  164.6413  102.9876 C   0  0  2  0  0  0  0  0  0  0  0  0
  180.4583  165.4472  104.0057 O   0  0  0  0  0  0  0  0  0  0  0  0
  181.8147  165.3571  104.1839 C   0  0  2  0  0  0  0  0  0  0  0  0
  182.1737  166.4166  105.2367 C   0  0  0  0  0  0  0  0  0  0  0  0
  181.6515  165.9845  106.4473 O   0  0  0  0  0  0  0  0  0  0  0  0
  182.5316  165.6717  102.9107 C   0  0  1  0  0  0  0  0  0  0  0  0
  183.2111  164.5426  102.4595 O   0  0  0  0  0  0  0  0  0  0  0  0
  181.5782  166.1819  101.8747 C   0  0  2  0  0  0  0  0  0  0  0  0
  181.1374  167.4617  102.1115 O   0  0  0  0  0  0  0  0  0  0  0  0
  180.3828  165.2732  101.6876 C   0  0  1  0  0  0  0  0  0  0  0  0
  180.7763  164.2344  100.8438 O   0  0  0  0  0  0  0  0  0  0  0  0
  1  2  1  6
  2  3  1  0
  3  4  1  0
  4  5  1  0
  5  6  1  0
  6  7  1  6
  7  8  1  0
  8  9  2  0
  6 10  1  0
 10 11  1  0
 12 11  1  1
 12 13  1  0
 13 14  1  1
 13 15  1  0
 15 16  1  0
 16 17  1  0
 17 18  1  0
 18 19  1  1
 13 20  1  0
 20 21  2  0
 20 22  1  0
 23 22  1  1
 23 24  1  0
 24 25  1  0
 25 26  1  1
 26 27  1  0
 25 28  1  0
 28 29  1  6
 28 30  1  0
 30 31  1  1
 30 32  1  0
 32 33  1  6
  4 34  1  6
 35 34  1  1
 35 36  1  0
 36 37  1  0
 37 38  1  1
 38 39  1  0
 37 40  1  0
 40 41  1  6
 40 42  1  0
 42 43  1  1
 42 44  1  0
 44 45  1  6
 46 45  1  6
 46 47  1  0
 47 48  1  0
 48 49  1  1
 49 50  1  0
 48 51  1  0
 51 52  1  6
 51 53  1  0
 53 54  1  1
 53 55  1  0
 55 56  1  6
  6  1  1  0
 18 12  1  0
 32 23  1  0
 44 35  1  0
 55 46  1  0
 18  1  1  0
  8  4  1  0
M  END
$$$$
