
     RDKit          3D

 56 62  0  0  0  0  0  0  0  0999 V2000
  113.3848  147.9358  157.4566 C   0  0  2  0  0  0  0  0  0  0  0  0
  114.1910  146.8684  156.7437 C   0  0  0  0  0  0  0  0  0  0  0  0
  115.5503  146.7806  157.3643 C   0  0  0  0  0  0  0  0  0  0  0  0
  115.5347  146.8651  158.8801 C   0  0  2  0  0  0  0  0  0  0  0  0
  114.0921  146.4580  159.2477 C   0  0  0  0  0  0  0  0  0  0  0  0
  113.3058  147.7352  158.9068 C   0  0  1  0  0  0  0  0  0  0  0  0
  114.1941  148.7344  159.6528 C   0  0  0  0  0  0  0  0  0  0  0  0
  115.6005  148.2274  159.3991 C   0  0  0  0  0  0  0  0  0  0  0  0
  116.6398  149.0228  159.6483 C   0  0  0  0  0  0  0  0  0  0  0  0
  111.9973  147.5878  159.5655 C   0  0  0  0  0  0  0  0  0  0  0  0
  110.7676  147.9968  158.8164 C   0  0  0  0  0  0  0  0  0  0  0  0
  111.2065  148.9274  157.7082 C   0  0  2  0  0  0  0  0  0  0  0  0
  110.1970  149.8667  157.2144 C   0  0  1  0  0  0  0  0  0  0  0  0
  109.9896  150.8958  158.3613 C   0  0  0  0  0  0  0  0  0  0  0  0
  110.7683  150.6825  156.0612 C   0  0  0  0  0  0  0  0  0  0  0  0
  112.1740  150.3265  155.7169 C   0  0  0  0  0  0  0  0  0  0  0  0
  112.2010  148.8237  155.4804 C   0  0  0  0  0  0  0  0  0  0  0  0
  112.0000  148.0907  156.7866 C   0  0  1  0  0  0  0  0  0  0  0  0
  111.4778  146.7183  156.4947 C   0  0  0  0  0  0  0  0  0  0  0  0
  108.8723  149.4032  156.8668 C   0  0  0  0  0  0  0  0  0  0  0  0
  108.2481  149.8677  155.8879 O   0  0  0  0  0  0  0  0  0  0  0  0
  108.2590  148.4243  157.6108 O   0  0  0  0  0  0  0  0  0  0  0  0
  106.8876  148.4288  157.9505 C   0  0  2  0  0  0  0  0  0  0  0  0
  106.7004  149.2910  159.0026 O   0  0  0  0  0  0  0  0  0  0  0  0
  105.3712  149.4592  159.3031 C   0  0  2  0  0  0  0  0  0  0  0  0
  105.2756  150.2590  160.5903 C   0  0  0  0  0  0  0  0  0  0  0  0
  106.5269  150.3776  161.1566 O   0  0  0  0  0  0  0  0  0  0  0  0
  104.6402  148.1646  159.4483 C   0  0  1  0  0  0  0  0  0  0  0  0
  103.8260  147.9033  158.3405 O   0  0  0  0  0  0  0  0  0  0  0  0
  105.6185  147.0367  159.5818 C   0  0  2  0  0  0  0  0  0  0  0  0
  106.3783  147.1329  160.7514 O   0  0  0  0  0  0  0  0  0  0  0  0
  106.5575  147.0119  158.4108 C   0  0  1  0  0  0  0  0  0  0  0  0
  106.0806  146.2232  157.3657 O   0  0  0  0  0  0  0  0  0  0  0  0
  116.3083  145.9176  159.4777 O   0  0  0  0  0  0  0  0  0  0  0  0
  117.3450  145.3770  158.7613 C   0  0  2  0  0  0  0  0  0  0  0  0
  116.7600  144.4785  157.8646 O   0  0  0  0  0  0  0  0  0  0  0  0
  117.0269  143.1611  158.0954 C   0  0  2  0  0  0  0  0  0  0  0  0
  116.0084  142.3611  157.2626 C   0  0  0  0  0  0  0  0  0  0  0  0
  114.7407  142.4247  157.8292 O   0  0  0  0  0  0  0  0  0  0  0  0
  116.7752  142.7746  159.5190 C   0  0  1  0  0  0  0  0  0  0  0  0
  117.0804  141.4272  159.7081 O   0  0  0  0  0  0  0  0  0  0  0  0
  117.4273  143.6741  160.5146 C   0  0  2  0  0  0  0  0  0  0  0  0
  116.4671  144.4228  161.2341 O   0  0  0  0  0  0  0  0  0  0  0  0
  118.2569  144.6882  159.7592 C   0  0  1  0  0  0  0  0  0  0  0  0
  119.3238  144.0561  159.1546 O   0  0  0  0  0  0  0  0  0  0  0  0
  120.5567  144.3288  159.7061 C   0  0  2  0  0  0  0  0  0  0  0  0
  120.9747  145.5354  159.1455 O   0  0  0  0  0  0  0  0  0  0  0  0
  122.0361  146.1253  159.7819 C   0  0  2  0  0  0  0  0  0  0  0  0
  122.4166  147.3439  158.9275 C   0  0  0  0  0  0  0  0  0  0  0  0
  121.3071  148.1759  158.8837 O   0  0  0  0  0  0  0  0  0  0  0  0
  123.1986  145.1874  159.8393 C   0  0  1  0  0  0  0  0  0  0  0  0
  123.4754  144.8586  161.1642 O   0  0  0  0  0  0  0  0  0  0  0  0
  122.9354  143.9624  159.0192 C   0  0  2  0  0  0  0  0  0  0  0  0
  122.9941  144.1812  157.6640 O   0  0  0  0  0  0  0  0  0  0  0  0
  121.6134  143.3091  159.3585 C   0  0  1  0  0  0  0  0  0  0  0  0
  121.8135  142.5291  160.4976 O   0  0  0  0  0  0  0  0  0  0  0  0
  1  2  1  6
  2  3  1  0
  3  4  1  0
  4  5  1  0
  5  6  1  0
  6  7  1  1
  7  8  1  0
  8  9  2  0
  6 10  1  0
 10 11  1  0
 12 11  1  1
 12 13  1  0
 13 14  1  1
 13 15  1  0
 15 16  1  0
 16 17  1  0
 17 18  1  0
 18 19  1  6
 13 20  1  0
 20 21  2  0
 20 22  1  0
 23 22  1  1
 23 24  1  0
 24 25  1  0
 25 26  1  1
 26 27  1  0
 25 28  1  0
 28 29  1  6
 28 30  1  0
 30 31  1  1
 30 32  1  0
 32 33  1  6
  4 34  1  1
 35 34  1  1
 35 36  1  0
 36 37  1  0
 37 38  1  6
 38 39  1  0
 37 40  1  0
 40 41  1  6
 40 42  1  0
 42 43  1  6
 42 44  1  0
 44 45  1  6
 46 45  1  6
 46 47  1  0
 47 48  1  0
 48 49  1  6
 49 50  1  0
 48 51  1  0
 51 52  1  1
 51 53  1  0
 53 54  1  6
 53 55  1  0
 55 56  1  1
  6  1  1  0
 18 12  1  0
 32 23  1  0
 44 35  1  0
 55 46  1  0
 18  1  1  0
  8  4  1  0
M  END
$$$$
