
     RDKit          3D

 56 62  0  0  0  0  0  0  0  0999 V2000
  125.9131  141.5916  133.0728 C   0  0  2  0  0  0  0  0  0  0  0  0
  124.4315  141.2869  133.1708 C   0  0  0  0  0  0  0  0  0  0  0  0
  124.2139  139.8221  132.9526 C   0  0  0  0  0  0  0  0  0  0  0  0
  125.2391  138.9437  133.6472 C   0  0  2  0  0  0  0  0  0  0  0  0
  125.7944  139.8536  134.7633 C   0  0  0  0  0  0  0  0  0  0  0  0
  126.7356  140.7815  133.9768 C   0  0  1  0  0  0  0  0  0  0  0  0
  127.5023  139.7016  133.2089 C   0  0  0  0  0  0  0  0  0  0  0  0
  126.4351  138.6852  132.8519 C   0  0  0  0  0  0  0  0  0  0  0  0
  126.6908  137.7629  131.9251 C   0  0  0  0  0  0  0  0  0  0  0  0
  127.5914  141.4309  134.9837 C   0  0  0  0  0  0  0  0  0  0  0  0
  127.8849  142.8916  134.8404 C   0  0  0  0  0  0  0  0  0  0  0  0
  127.6115  143.2647  133.4007 C   0  0  2  0  0  0  0  0  0  0  0  0
  128.3251  144.4372  132.8895 C   0  0  1  0  0  0  0  0  0  0  0  0
  129.8132  144.0014  132.7748 C   0  0  0  0  0  0  0  0  0  0  0  0
  127.8938  144.7220  131.4561 C   0  0  0  0  0  0  0  0  0  0  0  0
  126.8682  143.7712  130.9410 C   0  0  0  0  0  0  0  0  0  0  0  0
  125.7218  143.7775  131.9415 C   0  0  0  0  0  0  0  0  0  0  0  0
  126.1536  143.1110  133.2272 C   0  0  1  0  0  0  0  0  0  0  0  0
  125.2815  143.6006  134.3414 C   0  0  0  0  0  0  0  0  0  0  0  0
  128.3407  145.6715  133.6422 C   0  0  0  0  0  0  0  0  0  0  0  0
  128.1045  146.7746  133.1029 O   0  0  0  0  0  0  0  0  0  0  0  0
  128.6152  145.6632  134.9885 O   0  0  0  0  0  0  0  0  0  0  0  0
  128.4987  146.7933  135.8285 C   0  0  2  0  0  0  0  0  0  0  0  0
  129.7581  147.2687  136.0992 O   0  0  0  0  0  0  0  0  0  0  0  0
  129.7255  148.4511  136.7967 C   0  0  2  0  0  0  0  0  0  0  0  0
  131.1441  148.7888  137.2200 C   0  0  0  0  0  0  0  0  0  0  0  0
  131.9291  148.9772  136.1025 O   0  0  0  0  0  0  0  0  0  0  0  0
  128.8328  148.3954  137.9930 C   0  0  1  0  0  0  0  0  0  0  0  0
  127.6351  149.0863  137.7772 O   0  0  0  0  0  0  0  0  0  0  0  0
  128.4955  146.9706  138.3140 C   0  0  2  0  0  0  0  0  0  0  0  0
  129.6217  146.2344  138.6938 O   0  0  0  0  0  0  0  0  0  0  0  0
  127.8703  146.2966  137.1272 C   0  0  1  0  0  0  0  0  0  0  0  0
  126.4827  146.4235  137.1157 O   0  0  0  0  0  0  0  0  0  0  0  0
  124.6823  137.8985  134.3186 O   0  0  0  0  0  0  0  0  0  0  0  0
  125.2093  136.6472  134.1273 C   0  0  2  0  0  0  0  0  0  0  0  0
  124.1688  135.8713  133.6087 O   0  0  0  0  0  0  0  0  0  0  0  0
  123.7011  134.8902  134.4327 C   0  0  2  0  0  0  0  0  0  0  0  0
  122.3541  134.4348  133.8416 C   0  0  0  0  0  0  0  0  0  0  0  0
  121.2889  134.9870  134.5433 O   0  0  0  0  0  0  0  0  0  0  0  0
  123.3863  135.4050  135.8021 C   0  0  1  0  0  0  0  0  0  0  0  0
  122.9315  134.3633  136.6098 O   0  0  0  0  0  0  0  0  0  0  0  0
  124.4910  136.1940  136.4207 C   0  0  2  0  0  0  0  0  0  0  0  0
  124.1405  137.5589  136.5403 O   0  0  0  0  0  0  0  0  0  0  0  0
  125.6777  136.1554  135.4840 C   0  0  1  0  0  0  0  0  0  0  0  0
  126.1892  134.8749  135.4366 O   0  0  0  0  0  0  0  0  0  0  0  0
  127.5501  134.7935  135.2379 C   0  0  2  0  0  0  0  0  0  0  0  0
  127.7321  134.6017  133.8686 O   0  0  0  0  0  0  0  0  0  0  0  0
  129.0168  134.7916  133.4293 C   0  0  2  0  0  0  0  0  0  0  0  0
  129.0190  134.3936  131.9456 C   0  0  0  0  0  0  0  0  0  0  0  0
  128.1484  135.2523  131.2900 O   0  0  0  0  0  0  0  0  0  0  0  0
  129.9609  133.9038  134.1742 C   0  0  1  0  0  0  0  0  0  0  0  0
  130.8392  134.6764  134.9303 O   0  0  0  0  0  0  0  0  0  0  0  0
  129.2124  132.9333  135.0348 C   0  0  2  0  0  0  0  0  0  0  0  0
  128.5970  131.9283  134.3282 O   0  0  0  0  0  0  0  0  0  0  0  0
  128.1915  133.6113  135.9223 C   0  0  1  0  0  0  0  0  0  0  0  0
  128.8701  134.1072  137.0356 O   0  0  0  0  0  0  0  0  0  0  0  0
  1  2  1  1
  2  3  1  0
  3  4  1  0
  4  5  1  0
  5  6  1  0
  6  7  1  6
  7  8  1  0
  8  9  2  0
  6 10  1  0
 10 11  1  0
 12 11  1  1
 12 13  1  0
 13 14  1  6
 13 15  1  0
 15 16  1  0
 16 17  1  0
 17 18  1  0
 18 19  1  1
 13 20  1  0
 20 21  2  0
 20 22  1  0
 23 22  1  6
 23 24  1  0
 24 25  1  0
 25 26  1  1
 26 27  1  0
 25 28  1  0
 28 29  1  6
 28 30  1  0
 30 31  1  6
 30 32  1  0
 32 33  1  6
  4 34  1  1
 35 34  1  1
 35 36  1  0
 36 37  1  0
 37 38  1  6
 38 39  1  0
 37 40  1  0
 40 41  1  1
 40 42  1  0
 42 43  1  6
 42 44  1  0
 44 45  1  6
 46 45  1  6
 46 47  1  0
 47 48  1  0
 48 49  1  6
 49 50  1  0
 48 51  1  0
 51 52  1  1
 51 53  1  0
 53 54  1  6
 53 55  1  0
 55 56  1  1
  6  1  1  0
 18 12  1  0
 32 23  1  0
 44 35  1  0
 55 46  1  0
 18  1  1  0
  8  4  1  0
M  END
$$$$
