
     RDKit          3D

 56 62  0  0  0  0  0  0  0  0999 V2000
  129.7719  139.8820  133.4269 C   0  0  2  0  0  0  0  0  0  0  0  0
  130.0734  139.3915  132.0247 C   0  0  0  0  0  0  0  0  0  0  0  0
  130.0708  137.8947  132.0149 C   0  0  0  0  0  0  0  0  0  0  0  0
  128.9470  137.2820  132.8313 C   0  0  2  0  0  0  0  0  0  0  0  0
  127.9048  138.4172  132.9166 C   0  0  0  0  0  0  0  0  0  0  0  0
  128.5266  139.3393  133.9789 C   0  0  1  0  0  0  0  0  0  0  0  0
  128.8104  138.2744  135.0416 C   0  0  0  0  0  0  0  0  0  0  0  0
  129.2789  137.0771  134.2376 C   0  0  0  0  0  0  0  0  0  0  0  0
  129.8956  136.0714  134.8566 C   0  0  0  0  0  0  0  0  0  0  0  0
  127.4468  140.2450  134.4048 C   0  0  0  0  0  0  0  0  0  0  0  0
  127.7634  141.6944  134.6035 C   0  0  0  0  0  0  0  0  0  0  0  0
  129.2613  141.8060  134.7793 C   0  0  2  0  0  0  0  0  0  0  0  0
  129.7404  142.9769  135.5173 C   0  0  1  0  0  0  0  0  0  0  0  0
  129.3147  142.7411  136.9940 C   0  0  0  0  0  0  0  0  0  0  0  0
  131.2639  142.9810  135.5499 C   0  0  0  0  0  0  0  0  0  0  0  0
  131.8796  141.8300  134.8306 C   0  0  0  0  0  0  0  0  0  0  0  0
  131.2939  141.8258  133.4263 C   0  0  0  0  0  0  0  0  0  0  0  0
  129.8374  141.4260  133.4744 C   0  0  1  0  0  0  0  0  0  0  0  0
  129.1522  141.9501  132.2507 C   0  0  0  0  0  0  0  0  0  0  0  0
  129.2621  144.2999  135.1838 C   0  0  0  0  0  0  0  0  0  0  0  0
  129.2507  145.2268  136.0230 O   0  0  0  0  0  0  0  0  0  0  0  0
  128.8056  144.5771  133.9178 O   0  0  0  0  0  0  0  0  0  0  0  0
  128.2031  145.7986  133.5420 C   0  0  2  0  0  0  0  0  0  0  0  0
  127.3898  146.2182  134.5657 O   0  0  0  0  0  0  0  0  0  0  0  0
  126.8746  147.4703  134.3367 C   0  0  2  0  0  0  0  0  0  0  0  0
  125.8422  147.7600  135.4118 C   0  0  0  0  0  0  0  0  0  0  0  0
  125.9002  146.7853  136.3850 O   0  0  0  0  0  0  0  0  0  0  0  0
  126.2575  147.6058  132.9831 C   0  0  1  0  0  0  0  0  0  0  0  0
  127.0699  148.3448  132.1159 O   0  0  0  0  0  0  0  0  0  0  0  0
  126.0461  146.2503  132.3790 C   0  0  2  0  0  0  0  0  0  0  0  0
  125.1220  145.4892  133.1010 O   0  0  0  0  0  0  0  0  0  0  0  0
  127.3398  145.4909  132.3221 C   0  0  1  0  0  0  0  0  0  0  0  0
  128.0283  145.7056  131.1299 O   0  0  0  0  0  0  0  0  0  0  0  0
  128.2941  136.2816  132.1785 O   0  0  0  0  0  0  0  0  0  0  0  0
  127.7242  136.5610  130.9631 C   0  0  2  0  0  0  0  0  0  0  0  0
  126.3489  136.6447  131.1979 O   0  0  0  0  0  0  0  0  0  0  0  0
  125.5972  135.6504  130.6442 C   0  0  2  0  0  0  0  0  0  0  0  0
  124.2192  135.7183  131.3280 C   0  0  0  0  0  0  0  0  0  0  0  0
  124.1507  134.8377  132.4012 O   0  0  0  0  0  0  0  0  0  0  0  0
  126.1371  134.2911  130.9605 C   0  0  1  0  0  0  0  0  0  0  0  0
  125.3474  133.3126  130.3577 O   0  0  0  0  0  0  0  0  0  0  0  0
  127.5928  134.1362  130.6731 C   0  0  2  0  0  0  0  0  0  0  0  0
  128.3377  133.9913  131.8666 O   0  0  0  0  0  0  0  0  0  0  0  0
  128.0846  135.4161  130.0350 C   0  0  1  0  0  0  0  0  0  0  0  0
  127.5255  135.5534  128.7812 O   0  0  0  0  0  0  0  0  0  0  0  0
  128.4180  135.5080  127.7325 C   0  0  2  0  0  0  0  0  0  0  0  0
  129.0086  136.7698  127.6701 O   0  0  0  0  0  0  0  0  0  0  0  0
  130.1323  136.8383  126.8877 C   0  0  2  0  0  0  0  0  0  0  0  0
  130.5275  138.3221  126.8450 C   0  0  0  0  0  0  0  0  0  0  0  0
  130.5915  138.7669  128.1577 O   0  0  0  0  0  0  0  0  0  0  0  0
  129.8321  136.3730  125.4993 C   0  0  1  0  0  0  0  0  0  0  0  0
  130.5505  135.2118  125.2244 O   0  0  0  0  0  0  0  0  0  0  0  0
  128.3615  136.1579  125.3161 C   0  0  2  0  0  0  0  0  0  0  0  0
  127.6380  137.3235  125.2368 O   0  0  0  0  0  0  0  0  0  0  0  0
  127.7646  135.2771  126.3920 C   0  0  1  0  0  0  0  0  0  0  0  0
  128.0235  133.9527  126.0382 O   0  0  0  0  0  0  0  0  0  0  0  0
  1  2  1  6
  2  3  1  0
  3  4  1  0
  4  5  1  0
  5  6  1  0
  6  7  1  1
  7  8  1  0
  8  9  2  0
  6 10  1  0
 10 11  1  0
 12 11  1  6
 12 13  1  0
 13 14  1  1
 13 15  1  0
 15 16  1  0
 16 17  1  0
 17 18  1  0
 18 19  1  6
 13 20  1  0
 20 21  2  0
 20 22  1  0
 23 22  1  1
 23 24  1  0
 24 25  1  0
 25 26  1  1
 26 27  1  0
 25 28  1  0
 28 29  1  6
 28 30  1  0
 30 31  1  1
 30 32  1  0
 32 33  1  6
  4 34  1  6
 35 34  1  1
 35 36  1  0
 36 37  1  0
 37 38  1  1
 38 39  1  0
 37 40  1  0
 40 41  1  6
 40 42  1  0
 42 43  1  1
 42 44  1  0
 44 45  1  6
 46 45  1  1
 46 47  1  0
 47 48  1  0
 48 49  1  6
 49 50  1  0
 48 51  1  0
 51 52  1  1
 51 53  1  0
 53 54  1  1
 53 55  1  0
 55 56  1  6
  6  1  1  0
 18 12  1  0
 32 23  1  0
 44 35  1  0
 55 46  1  0
 18  1  1  0
  8  4  1  0
M  END
$$$$
