
     RDKit          3D

 56 62  0  0  0  0  0  0  0  0999 V2000
  113.6547  146.0488  157.6520 C   0  0  2  0  0  0  0  0  0  0  0  0
  112.9781  145.2164  156.5811 C   0  0  0  0  0  0  0  0  0  0  0  0
  111.7049  144.6501  157.1279 C   0  0  0  0  0  0  0  0  0  0  0  0
  110.9118  145.6346  157.9687 C   0  0  2  0  0  0  0  0  0  0  0  0
  111.4309  147.0094  157.4971 C   0  0  0  0  0  0  0  0  0  0  0  0
  112.7918  147.0954  158.2085 C   0  0  1  0  0  0  0  0  0  0  0  0
  112.3163  146.7296  159.6170 C   0  0  0  0  0  0  0  0  0  0  0  0
  111.2841  145.6444  159.3797 C   0  0  0  0  0  0  0  0  0  0  0  0
  110.8829  144.8860  160.3989 C   0  0  0  0  0  0  0  0  0  0  0  0
  113.1956  148.5092  158.1311 C   0  0  0  0  0  0  0  0  0  0  0  0
  114.6228  148.8307  157.8142 C   0  0  0  0  0  0  0  0  0  0  0  0
  115.4390  147.5947  158.1188 C   0  0  2  0  0  0  0  0  0  0  0  0
  116.8553  147.8131  158.4217 C   0  0  1  0  0  0  0  0  0  0  0  0
  116.8814  148.5010  159.8159 C   0  0  0  0  0  0  0  0  0  0  0  0
  117.5514  146.4749  158.6375 C   0  0  0  0  0  0  0  0  0  0  0  0
  116.6485  145.2998  158.4791 C   0  0  0  0  0  0  0  0  0  0  0  0
  115.9855  145.4361  157.1164 C   0  0  0  0  0  0  0  0  0  0  0  0
  115.0067  146.5874  157.1300 C   0  0  1  0  0  0  0  0  0  0  0  0
  114.7981  147.0605  155.7250 C   0  0  0  0  0  0  0  0  0  0  0  0
  117.6682  148.6464  157.5644 C   0  0  0  0  0  0  0  0  0  0  0  0
  117.9925  149.8089  157.8914 O   0  0  0  0  0  0  0  0  0  0  0  0
  118.1149  148.1741  156.3539 O   0  0  0  0  0  0  0  0  0  0  0  0
  119.1425  147.2156  156.2070 C   0  0  2  0  0  0  0  0  0  0  0  0
  120.3157  147.8717  155.9266 O   0  0  0  0  0  0  0  0  0  0  0  0
  121.3926  147.0200  155.9073 C   0  0  2  0  0  0  0  0  0  0  0  0
  122.5961  147.7919  155.3963 C   0  0  0  0  0  0  0  0  0  0  0  0
  123.2970  148.3163  156.4612 O   0  0  0  0  0  0  0  0  0  0  0  0
  121.1617  145.8108  155.0611 C   0  0  1  0  0  0  0  0  0  0  0  0
  120.9295  144.6714  155.8396 O   0  0  0  0  0  0  0  0  0  0  0  0
  119.9673  146.0228  154.1806 C   0  0  2  0  0  0  0  0  0  0  0  0
  120.1689  147.0527  153.2568 O   0  0  0  0  0  0  0  0  0  0  0  0
  118.7581  146.3589  155.0042 C   0  0  1  0  0  0  0  0  0  0  0  0
  118.0416  145.2247  155.3810 O   0  0  0  0  0  0  0  0  0  0  0  0
  109.5863  145.6574  157.6594 O   0  0  0  0  0  0  0  0  0  0  0  0
  108.8264  146.6980  158.1283 C   0  0  2  0  0  0  0  0  0  0  0  0
  107.9981  146.1510  159.1124 O   0  0  0  0  0  0  0  0  0  0  0  0
  106.6697  146.1107  158.8057 C   0  0  2  0  0  0  0  0  0  0  0  0
  106.0203  145.1529  159.8216 C   0  0  0  0  0  0  0  0  0  0  0  0
  106.9849  144.4244  160.5078 O   0  0  0  0  0  0  0  0  0  0  0  0
  106.4184  145.5027  157.4616 C   0  0  1  0  0  0  0  0  0  0  0  0
  105.0514  145.5019  157.1870 O   0  0  0  0  0  0  0  0  0  0  0  0
  107.2414  146.0939  156.3666 C   0  0  2  0  0  0  0  0  0  0  0  0
  108.1919  145.1655  155.8822 O   0  0  0  0  0  0  0  0  0  0  0  0
  108.0430  147.2377  156.9464 C   0  0  1  0  0  0  0  0  0  0  0  0
  107.1943  148.2671  157.2979 O   0  0  0  0  0  0  0  0  0  0  0  0
  107.3700  148.7639  158.5710 C   0  0  2  0  0  0  0  0  0  0  0  0
  106.2019  148.4623  159.2704 O   0  0  0  0  0  0  0  0  0  0  0  0
  106.2945  148.6087  160.6304 C   0  0  2  0  0  0  0  0  0  0  0  0
  104.8794  148.3701  161.1783 C   0  0  0  0  0  0  0  0  0  0  0  0
  104.4333  149.5759  161.6998 O   0  0  0  0  0  0  0  0  0  0  0  0
  106.7252  149.9969  160.9790 C   0  0  1  0  0  0  0  0  0  0  0  0
  107.9762  149.9641  161.5906 O   0  0  0  0  0  0  0  0  0  0  0  0
  106.7377  150.8716  159.7635 C   0  0  2  0  0  0  0  0  0  0  0  0
  105.4845  151.2173  159.3182 O   0  0  0  0  0  0  0  0  0  0  0  0
  107.5197  150.2647  158.6190 C   0  0  1  0  0  0  0  0  0  0  0  0
  108.8698  150.5298  158.8492 O   0  0  0  0  0  0  0  0  0  0  0  0
  1  2  1  6
  2  3  1  0
  3  4  1  0
  4  5  1  0
  5  6  1  0
  6  7  1  1
  7  8  1  0
  8  9  2  0
  6 10  1  0
 10 11  1  0
 12 11  1  6
 12 13  1  0
 13 14  1  1
 13 15  1  0
 15 16  1  0
 16 17  1  0
 17 18  1  0
 18 19  1  6
 13 20  1  0
 20 21  2  0
 20 22  1  0
 23 22  1  6
 23 24  1  0
 24 25  1  0
 25 26  1  6
 26 27  1  0
 25 28  1  0
 28 29  1  1
 28 30  1  0
 30 31  1  6
 30 32  1  0
 32 33  1  1
  4 34  1  1
 35 34  1  6
 35 36  1  0
 36 37  1  0
 37 38  1  1
 38 39  1  0
 37 40  1  0
 40 41  1  6
 40 42  1  0
 42 43  1  1
 42 44  1  0
 44 45  1  1
 46 45  1  6
 46 47  1  0
 47 48  1  0
 48 49  1  1
 49 50  1  0
 48 51  1  0
 51 52  1  6
 51 53  1  0
 53 54  1  6
 53 55  1  0
 55 56  1  1
  6  1  1  0
 18 12  1  0
 32 23  1  0
 44 35  1  0
 55 46  1  0
 18  1  1  0
  8  4  1  0
M  END
$$$$
