
     RDKit          3D

 51 56  0  0  0  0  0  0  0  0999 V2000
  186.7186  154.0078  130.3747 C   0  0  1  0  0  0  0  0  0  0  0  0
  186.3947  153.9006  131.8290 C   0  0  0  0  0  0  0  0  0  0  0  0
  186.8653  155.2321  132.3834 C   0  0  2  0  0  0  0  0  0  0  0  0
  185.7433  156.1097  132.7969 C   0  0  0  0  0  0  0  0  0  0  0  0
  187.8165  155.6968  131.3807 C   0  0  1  0  0  0  0  0  0  0  0  0
  187.3633  155.1960  130.1612 O   0  0  0  0  0  0  0  0  0  0  0  0
  188.1239  157.1380  131.2458 C   0  0  2  0  0  0  0  0  0  0  0  0
  188.4075  157.4900  129.7712 C   0  0  0  0  0  0  0  0  0  0  0  0
  189.3956  157.4845  131.9939 C   0  0  0  0  0  0  0  0  0  0  0  0
  189.3237  159.0139  131.9910 C   0  0  0  0  0  0  0  0  0  0  0  0
  187.8778  159.2436  131.7072 C   0  0  1  0  0  0  0  0  0  0  0  0
  187.2327  158.0114  131.7983 O   0  0  0  0  0  0  0  0  0  0  0  0
  187.2926  160.2509  132.6492 C   0  0  2  0  0  0  0  0  0  0  0  0
  185.7780  160.0920  132.6500 C   0  0  0  0  0  0  0  0  0  0  0  0
  187.5779  161.6253  132.0909 C   0  0  0  0  0  0  0  0  0  0  0  0
  187.7177  162.4554  133.3234 C   0  0  1  0  0  0  0  0  0  0  0  0
  186.4013  162.9955  133.8229 C   0  0  0  0  0  0  0  0  0  0  0  0
  188.2041  161.4177  134.3208 C   0  0  2  0  0  0  0  0  0  0  0  0
  187.7327  160.2006  133.9350 O   0  0  0  0  0  0  0  0  0  0  0  0
  187.7268  161.7814  135.5382 O   0  0  0  0  0  0  0  0  0  0  0  0
  188.4570  161.2634  136.6438 C   0  0  2  0  0  0  0  0  0  0  0  0
  187.6737  161.6978  137.8324 C   0  0  0  0  0  0  0  0  0  0  0  0
  186.9090  160.7349  138.6472 C   0  0  1  0  0  0  0  0  0  0  0  0
  186.5793  160.9440  140.0427 C   0  0  0  0  0  0  0  0  0  0  0  0
  185.2809  161.6512  140.3297 C   0  0  0  0  0  0  0  0  0  0  0  0
  184.4559  161.7994  139.1076 C   0  0  2  0  0  0  0  0  0  0  0  0
  183.0486  162.2680  139.3994 C   0  0  0  0  0  0  0  0  0  0  0  0
  184.5811  160.6101  138.2551 C   0  0  1  0  0  0  0  0  0  0  0  0
  185.8299  160.3535  137.8414 O   0  0  0  0  0  0  0  0  0  0  0  0
  183.9554  159.3342  138.7566 C   0  0  1  0  0  0  0  0  0  0  0  0
  182.5869  159.4669  139.3188 C   0  0  0  0  0  0  0  0  0  0  0  0
  183.9260  158.4134  137.5933 C   0  0  0  0  0  0  0  0  0  0  0  0
  184.9741  157.5527  137.3235 O   0  0  0  0  0  0  0  0  0  0  0  0
  182.9365  158.4110  136.8381 O   0  0  0  0  0  0  0  0  0  0  0  0
  189.7998  161.9531  136.6413 C   0  0  0  0  0  0  0  0  0  0  0  0
  190.2560  162.4092  135.2673 C   0  0  1  0  0  0  0  0  0  0  0  0
  191.6021  162.6148  135.1953 O   0  0  0  0  0  0  0  0  0  0  0  0
  191.9501  163.7281  135.9242 C   0  0  0  0  0  0  0  0  0  0  0  0
  189.7196  161.4033  134.2652 C   0  0  1  0  0  0  0  0  0  0  0  0
  190.3270  160.0642  134.5068 C   0  0  0  0  0  0  0  0  0  0  0  0
  187.6440  152.8887  129.9099 C   0  0  1  0  0  0  0  0  0  0  0  0
  187.2093  151.7330  130.4787 O   0  0  0  0  0  0  0  0  0  0  0  0
  187.6929  150.5543  130.0044 C   0  0  1  0  0  0  0  0  0  0  0  0
  188.1206  149.8082  131.1274 O   0  0  0  0  0  0  0  0  0  0  0  0
  186.5813  149.7099  129.3694 C   0  0  0  0  0  0  0  0  0  0  0  0
  186.8145  148.3547  129.6409 O   0  0  0  0  0  0  0  0  0  0  0  0
  188.8391  150.6223  129.0535 C   0  0  2  0  0  0  0  0  0  0  0  0
  190.1822  150.5129  129.7767 C   0  0  0  0  0  0  0  0  0  0  0  0
  188.8079  151.7783  128.0988 C   0  0  0  0  0  0  0  0  0  0  0  0
  187.7087  152.7729  128.4289 C   0  0  2  0  0  0  0  0  0  0  0  0
  188.1489  154.0939  127.7808 C   0  0  0  0  0  0  0  0  0  0  0  0
  1  2  1  1
  2  3  1  0
  3  4  1  6
  3  5  1  0
  5  6  1  6
  5  7  1  0
  7  8  1  6
  7  9  1  0
  9 10  1  0
 11 10  1  1
 11 12  1  0
 11 13  1  0
 13 14  1  1
 13 15  1  0
 15 16  1  0
 16 17  1  1
 16 18  1  0
 18 19  1  6
 18 20  1  0
 20 21  1  0
 21 22  1  1
 23 22  1  6
 23 24  1  0
 24 25  1  0
 25 26  1  0
 26 27  1  1
 26 28  1  0
 28 29  1  1
 28 30  1  0
 30 31  1  6
 30 32  1  0
 32 33  1  0
 32 34  2  0
 21 35  1  0
 35 36  1  0
 36 37  1  1
 37 38  1  0
 36 39  1  0
 39 40  1  1
  1 41  1  0
 41 42  1  1
 42 43  1  0
 43 44  1  1
 43 45  1  0
 45 46  1  0
 43 47  1  0
 47 48  1  1
 47 49  1  0
 49 50  1  0
 50 51  1  6
  6  1  1  0
 12  7  1  0
 19 13  1  0
 29 23  1  0
 50 41  1  0
 39 18  1  0
M  END
$$$$
