
     RDKit          3D

 51 56  0  0  0  0  0  0  0  0999 V2000
  184.1296  159.4088  134.5185 C   0  0  1  0  0  0  0  0  0  0  0  0
  184.1321  160.3114  133.3283 C   0  0  0  0  0  0  0  0  0  0  0  0
  185.5688  160.2375  132.8460 C   0  0  2  0  0  0  0  0  0  0  0  0
  185.7054  159.5082  131.5617 C   0  0  0  0  0  0  0  0  0  0  0  0
  186.2953  159.7746  134.0225 C   0  0  1  0  0  0  0  0  0  0  0  0
  185.4068  158.9638  134.7272 O   0  0  0  0  0  0  0  0  0  0  0  0
  187.5964  159.0844  133.8801 C   0  0  2  0  0  0  0  0  0  0  0  0
  188.2231  158.8305  135.2663 C   0  0  0  0  0  0  0  0  0  0  0  0
  188.5886  159.9629  133.1447 C   0  0  0  0  0  0  0  0  0  0  0  0
  189.6953  158.9510  132.8357 C   0  0  0  0  0  0  0  0  0  0  0  0
  188.9688  157.6581  132.9918 C   0  0  1  0  0  0  0  0  0  0  0  0
  187.6123  157.9529  133.1174 O   0  0  0  0  0  0  0  0  0  0  0  0
  189.2363  156.7418  131.8371 C   0  0  2  0  0  0  0  0  0  0  0  0
  190.5415  156.0016  132.0972 C   0  0  0  0  0  0  0  0  0  0  0  0
  189.4663  157.5967  130.6131 C   0  0  0  0  0  0  0  0  0  0  0  0
  188.9368  156.7392  129.5122 C   0  0  1  0  0  0  0  0  0  0  0  0
  189.9648  155.7813  128.9646 C   0  0  0  0  0  0  0  0  0  0  0  0
  187.8900  155.9252  130.2537 C   0  0  2  0  0  0  0  0  0  0  0  0
  188.2696  155.8271  131.5570 O   0  0  0  0  0  0  0  0  0  0  0  0
  187.8310  154.7100  129.6521 O   0  0  0  0  0  0  0  0  0  0  0  0
  186.6098  154.0068  129.8472 C   0  0  2  0  0  0  0  0  0  0  0  0
  186.8449  152.6850  129.2050 C   0  0  0  0  0  0  0  0  0  0  0  0
  186.1755  151.4622  129.6875 C   0  0  1  0  0  0  0  0  0  0  0  0
  185.9844  150.2759  128.8778 C   0  0  0  0  0  0  0  0  0  0  0  0
  187.0823  149.2458  128.9217 C   0  0  0  0  0  0  0  0  0  0  0  0
  188.0686  149.5416  129.9875 C   0  0  2  0  0  0  0  0  0  0  0  0
  189.0336  148.4035  130.2302 C   0  0  0  0  0  0  0  0  0  0  0  0
  187.3962  150.0875  131.1736 C   0  0  1  0  0  0  0  0  0  0  0  0
  186.7218  151.2247  130.9542 O   0  0  0  0  0  0  0  0  0  0  0  0
  186.5298  149.1454  131.9688 C   0  0  1  0  0  0  0  0  0  0  0  0
  187.1345  147.8254  132.2825 C   0  0  0  0  0  0  0  0  0  0  0  0
  186.2111  149.8570  133.2315 C   0  0  0  0  0  0  0  0  0  0  0  0
  186.5138  151.1949  133.4058 O   0  0  0  0  0  0  0  0  0  0  0  0
  185.6578  149.2398  134.1601 O   0  0  0  0  0  0  0  0  0  0  0  0
  185.5465  154.7595  129.0846 C   0  0  0  0  0  0  0  0  0  0  0  0
  185.8326  156.2420  128.9286 C   0  0  1  0  0  0  0  0  0  0  0  0
  184.7151  156.9727  128.6515 O   0  0  0  0  0  0  0  0  0  0  0  0
  183.5952  156.3135  129.1022 C   0  0  0  0  0  0  0  0  0  0  0  0
  186.5789  156.6833  130.1744 C   0  0  1  0  0  0  0  0  0  0  0  0
  185.7100  156.5283  131.3750 C   0  0  0  0  0  0  0  0  0  0  0  0
  183.6779  160.1301  135.7835 C   0  0  1  0  0  0  0  0  0  0  0  0
  182.6683  160.9726  135.4381 O   0  0  0  0  0  0  0  0  0  0  0  0
  181.9129  161.5200  136.4270 C   0  0  1  0  0  0  0  0  0  0  0  0
  181.8570  162.9106  136.1744 O   0  0  0  0  0  0  0  0  0  0  0  0
  180.4570  161.0449  136.3453 C   0  0  0  0  0  0  0  0  0  0  0  0
  179.7259  161.9249  135.5354 O   0  0  0  0  0  0  0  0  0  0  0  0
  182.3922  161.3418  137.8274 C   0  0  2  0  0  0  0  0  0  0  0  0
  183.2614  162.5151  138.2822 C   0  0  0  0  0  0  0  0  0  0  0  0
  183.0377  160.0195  138.1172 C   0  0  0  0  0  0  0  0  0  0  0  0
  183.2588  159.1951  136.8611 C   0  0  2  0  0  0  0  0  0  0  0  0
  184.3806  158.2080  137.2160 C   0  0  0  0  0  0  0  0  0  0  0  0
  1  2  1  6
  2  3  1  0
  3  4  1  6
  3  5  1  0
  5  6  1  6
  5  7  1  0
  7  8  1  1
  7  9  1  0
  9 10  1  0
 11 10  1  6
 11 12  1  0
 11 13  1  0
 13 14  1  1
 13 15  1  0
 15 16  1  0
 16 17  1  1
 16 18  1  0
 18 19  1  1
 18 20  1  0
 20 21  1  0
 21 22  1  6
 23 22  1  6
 23 24  1  0
 24 25  1  0
 25 26  1  0
 26 27  1  1
 26 28  1  0
 28 29  1  6
 28 30  1  0
 30 31  1  1
 30 32  1  0
 32 33  1  0
 32 34  2  0
 21 35  1  0
 35 36  1  0
 36 37  1  1
 37 38  1  0
 36 39  1  0
 39 40  1  1
  1 41  1  0
 41 42  1  6
 42 43  1  0
 43 44  1  6
 43 45  1  0
 45 46  1  0
 43 47  1  0
 47 48  1  6
 47 49  1  0
 49 50  1  0
 50 51  1  1
  6  1  1  0
 12  7  1  0
 19 13  1  0
 29 23  1  0
 50 41  1  0
 39 18  1  0
M  END
$$$$
