
     RDKit          3D

 51 56  0  0  0  0  0  0  0  0999 V2000
  190.8804  160.1564  132.7326 C   0  0  1  0  0  0  0  0  0  0  0  0
  191.0103  159.3199  133.9634 C   0  0  0  0  0  0  0  0  0  0  0  0
  189.8118  159.7424  134.7922 C   0  0  2  0  0  0  0  0  0  0  0  0
  188.7789  158.6822  134.8882 C   0  0  0  0  0  0  0  0  0  0  0  0
  189.4627  161.0456  134.2390 C   0  0  1  0  0  0  0  0  0  0  0  0
  189.8105  160.9951  132.8900 O   0  0  0  0  0  0  0  0  0  0  0  0
  188.0904  161.5805  134.3816 C   0  0  2  0  0  0  0  0  0  0  0  0
  187.9536  162.9153  133.6212 C   0  0  0  0  0  0  0  0  0  0  0  0
  187.7945  161.9109  135.8309 C   0  0  0  0  0  0  0  0  0  0  0  0
  186.2782  162.1152  135.7758 C   0  0  0  0  0  0  0  0  0  0  0  0
  185.9301  161.4212  134.5027 C   0  0  1  0  0  0  0  0  0  0  0  0
  187.0651  160.7328  134.0776 O   0  0  0  0  0  0  0  0  0  0  0  0
  184.7582  160.5060  134.6857 C   0  0  2  0  0  0  0  0  0  0  0  0
  185.2467  159.2144  135.3277 C   0  0  0  0  0  0  0  0  0  0  0  0
  184.2443  160.1341  133.3148 C   0  0  0  0  0  0  0  0  0  0  0  0
  182.7805  159.9629  133.5505 C   0  0  1  0  0  0  0  0  0  0  0  0
  182.4148  158.5709  134.0009 C   0  0  0  0  0  0  0  0  0  0  0  0
  182.5613  160.9045  134.7224 C   0  0  2  0  0  0  0  0  0  0  0  0
  183.7242  160.9910  135.4242 O   0  0  0  0  0  0  0  0  0  0  0  0
  181.5574  160.3813  135.4711 O   0  0  0  0  0  0  0  0  0  0  0  0
  180.8725  161.3212  136.2904 C   0  0  2  0  0  0  0  0  0  0  0  0
  179.9249  160.4907  137.0823 C   0  0  0  0  0  0  0  0  0  0  0  0
  179.8645  160.5789  138.5535 C   0  0  1  0  0  0  0  0  0  0  0  0
  180.4006  161.6881  139.3165 C   0  0  0  0  0  0  0  0  0  0  0  0
  179.4656  162.8391  139.5800 C   0  0  0  0  0  0  0  0  0  0  0  0
  178.0719  162.5114  139.1974 C   0  0  2  0  0  0  0  0  0  0  0  0
  177.0712  163.5361  139.6812 C   0  0  0  0  0  0  0  0  0  0  0  0
  177.7687  161.1089  139.5102 C   0  0  1  0  0  0  0  0  0  0  0  0
  178.5530  160.2196  138.8855 O   0  0  0  0  0  0  0  0  0  0  0  0
  177.6617  160.7356  140.9662 C   0  0  1  0  0  0  0  0  0  0  0  0
  176.3481  161.0063  141.6046 C   0  0  0  0  0  0  0  0  0  0  0  0
  177.9555  159.2825  141.0340 C   0  0  0  0  0  0  0  0  0  0  0  0
  178.4857  158.7026  142.1718 O   0  0  0  0  0  0  0  0  0  0  0  0
  177.7212  158.5629  140.0458 O   0  0  0  0  0  0  0  0  0  0  0  0
  180.0999  162.2272  135.3624 C   0  0  0  0  0  0  0  0  0  0  0  0
  180.7160  162.3660  133.9822 C   0  0  1  0  0  0  0  0  0  0  0  0
  180.2945  163.4822  133.3218 O   0  0  0  0  0  0  0  0  0  0  0  0
  178.9246  163.4705  133.1997 C   0  0  0  0  0  0  0  0  0  0  0  0
  182.2207  162.2697  134.1562 C   0  0  1  0  0  0  0  0  0  0  0  0
  182.7168  163.4116  134.9749 C   0  0  0  0  0  0  0  0  0  0  0  0
  192.1143  161.0195  132.4936 C   0  0  1  0  0  0  0  0  0  0  0  0
  193.2059  160.2178  132.6119 O   0  0  0  0  0  0  0  0  0  0  0  0
  194.4046  160.6846  132.1720 C   0  0  1  0  0  0  0  0  0  0  0  0
  195.3348  160.4644  133.2146 O   0  0  0  0  0  0  0  0  0  0  0  0
  194.9284  159.8545  130.9936 C   0  0  0  0  0  0  0  0  0  0  0  0
  195.8092  158.8741  131.4710 O   0  0  0  0  0  0  0  0  0  0  0  0
  194.4803  162.1279  131.8065 C   0  0  2  0  0  0  0  0  0  0  0  0
  194.9414  162.9871  132.9846 C   0  0  0  0  0  0  0  0  0  0  0  0
  193.2515  162.6853  131.1520 C   0  0  0  0  0  0  0  0  0  0  0  0
  192.0885  161.7089  131.1765 C   0  0  2  0  0  0  0  0  0  0  0  0
  190.8292  162.5741  131.0198 C   0  0  0  0  0  0  0  0  0  0  0  0
  1  2  1  1
  2  3  1  0
  3  4  1  6
  3  5  1  0
  5  6  1  6
  5  7  1  0
  7  8  1  6
  7  9  1  0
  9 10  1  0
 11 10  1  1
 11 12  1  0
 11 13  1  0
 13 14  1  1
 13 15  1  0
 15 16  1  0
 16 17  1  1
 16 18  1  0
 18 19  1  1
 18 20  1  0
 20 21  1  0
 21 22  1  1
 23 22  1  6
 23 24  1  0
 24 25  1  0
 25 26  1  0
 26 27  1  1
 26 28  1  0
 28 29  1  1
 28 30  1  0
 30 31  1  6
 30 32  1  0
 32 33  1  0
 32 34  2  0
 21 35  1  0
 35 36  1  0
 36 37  1  1
 37 38  1  0
 36 39  1  0
 39 40  1  1
  1 41  1  0
 41 42  1  6
 42 43  1  0
 43 44  1  1
 43 45  1  0
 45 46  1  0
 43 47  1  0
 47 48  1  1
 47 49  1  0
 49 50  1  0
 50 51  1  1
  6  1  1  0
 12  7  1  0
 19 13  1  0
 29 23  1  0
 50 41  1  0
 39 18  1  0
M  END
$$$$
