
     RDKit          3D

 51 56  0  0  0  0  0  0  0  0999 V2000
  183.4211  162.7527  142.2470 C   0  0  1  0  0  0  0  0  0  0  0  0
  184.0412  161.5083  142.7933 C   0  0  0  0  0  0  0  0  0  0  0  0
  185.1660  161.2284  141.8144 C   0  0  2  0  0  0  0  0  0  0  0  0
  186.5083  161.4560  142.4033 C   0  0  0  0  0  0  0  0  0  0  0  0
  184.7645  161.9640  140.6212 C   0  0  1  0  0  0  0  0  0  0  0  0
  184.0527  163.0730  141.0759 O   0  0  0  0  0  0  0  0  0  0  0  0
  185.7726  162.3911  139.6257 C   0  0  2  0  0  0  0  0  0  0  0  0
  186.5971  163.5747  140.1716 C   0  0  0  0  0  0  0  0  0  0  0  0
  185.0976  162.9145  138.3737 C   0  0  0  0  0  0  0  0  0  0  0  0
  186.2852  162.9731  137.4093 C   0  0  0  0  0  0  0  0  0  0  0  0
  187.2578  162.0622  138.0788 C   0  0  1  0  0  0  0  0  0  0  0  0
  186.5835  161.4194  139.1155 O   0  0  0  0  0  0  0  0  0  0  0  0
  187.8465  161.0865  137.1063 C   0  0  2  0  0  0  0  0  0  0  0  0
  189.0083  160.3696  137.7812 C   0  0  0  0  0  0  0  0  0  0  0  0
  188.4379  161.8753  135.9617 C   0  0  0  0  0  0  0  0  0  0  0  0
  188.2502  160.9562  134.8008 C   0  0  1  0  0  0  0  0  0  0  0  0
  189.3847  159.9765  134.6350 C   0  0  0  0  0  0  0  0  0  0  0  0
  187.0224  160.1770  135.2407 C   0  0  2  0  0  0  0  0  0  0  0  0
  186.9972  160.1520  136.6013 O   0  0  0  0  0  0  0  0  0  0  0  0
  187.1322  158.9308  134.7146 O   0  0  0  0  0  0  0  0  0  0  0  0
  185.9010  158.2316  134.5759 C   0  0  2  0  0  0  0  0  0  0  0  0
  186.3026  156.8784  134.1041 C   0  0  0  0  0  0  0  0  0  0  0  0
  187.6166  156.6373  133.4788 C   0  0  1  0  0  0  0  0  0  0  0  0
  188.5240  155.5856  133.8915 C   0  0  0  0  0  0  0  0  0  0  0  0
  188.3685  154.2537  133.2056 C   0  0  0  0  0  0  0  0  0  0  0  0
  187.4468  154.3379  132.0482 C   0  0  2  0  0  0  0  0  0  0  0  0
  187.4658  153.0950  131.1877 C   0  0  0  0  0  0  0  0  0  0  0  0
  187.6176  155.6166  131.3465 C   0  0  1  0  0  0  0  0  0  0  0  0
  187.3799  156.6988  132.1006 O   0  0  0  0  0  0  0  0  0  0  0  0
  188.9022  155.8182  130.5850 C   0  0  1  0  0  0  0  0  0  0  0  0
  189.5326  154.5845  130.0494 C   0  0  0  0  0  0  0  0  0  0  0  0
  188.5690  156.7312  129.4636 C   0  0  0  0  0  0  0  0  0  0  0  0
  188.9505  158.0603  129.4732 O   0  0  0  0  0  0  0  0  0  0  0  0
  187.9305  156.2960  128.4877 O   0  0  0  0  0  0  0  0  0  0  0  0
  185.1195  158.9353  133.4929 C   0  0  0  0  0  0  0  0  0  0  0  0
  185.4540  160.4089  133.3498 C   0  0  1  0  0  0  0  0  0  0  0  0
  184.4765  161.1166  132.7149 O   0  0  0  0  0  0  0  0  0  0  0  0
  183.2422  160.5836  133.0054 C   0  0  0  0  0  0  0  0  0  0  0  0
  185.8015  160.9216  134.7354 C   0  0  1  0  0  0  0  0  0  0  0  0
  184.6141  160.8264  135.6307 C   0  0  0  0  0  0  0  0  0  0  0  0
  181.9396  162.5666  141.9384 C   0  0  1  0  0  0  0  0  0  0  0  0
  181.7007  161.2306  141.8600 O   0  0  0  0  0  0  0  0  0  0  0  0
  180.4111  160.8003  141.8710 C   0  0  1  0  0  0  0  0  0  0  0  0
  180.2713  159.9046  140.7852 O   0  0  0  0  0  0  0  0  0  0  0  0
  180.1144  159.9584  143.1181 C   0  0  0  0  0  0  0  0  0  0  0  0
  181.1105  160.1831  144.0783 O   0  0  0  0  0  0  0  0  0  0  0  0
  179.3471  161.8352  141.7331 C   0  0  2  0  0  0  0  0  0  0  0  0
  178.9319  162.0297  140.2741 C   0  0  0  0  0  0  0  0  0  0  0  0
  179.6346  163.1402  142.4137 C   0  0  0  0  0  0  0  0  0  0  0  0
  181.0563  163.2171  142.9422 C   0  0  2  0  0  0  0  0  0  0  0  0
  181.3609  164.7170  143.0704 C   0  0  0  0  0  0  0  0  0  0  0  0
  1  2  1  6
  2  3  1  0
  3  4  1  1
  3  5  1  0
  5  6  1  1
  5  7  1  0
  7  8  1  1
  7  9  1  0
  9 10  1  0
 11 10  1  6
 11 12  1  0
 11 13  1  0
 13 14  1  1
 13 15  1  0
 15 16  1  0
 16 17  1  1
 16 18  1  0
 18 19  1  1
 18 20  1  0
 20 21  1  0
 21 22  1  6
 23 22  1  1
 23 24  1  0
 24 25  1  0
 25 26  1  0
 26 27  1  6
 26 28  1  0
 28 29  1  1
 28 30  1  0
 30 31  1  6
 30 32  1  0
 32 33  1  0
 32 34  2  0
 21 35  1  0
 35 36  1  0
 36 37  1  1
 37 38  1  0
 36 39  1  0
 39 40  1  1
  1 41  1  0
 41 42  1  1
 42 43  1  0
 43 44  1  6
 43 45  1  0
 45 46  1  0
 43 47  1  0
 47 48  1  6
 47 49  1  0
 49 50  1  0
 50 51  1  6
  6  1  1  0
 12  7  1  0
 19 13  1  0
 29 23  1  0
 50 41  1  0
 39 18  1  0
M  END
$$$$
