
     RDKit          3D

 51 56  0  0  0  0  0  0  0  0999 V2000
  146.2587  172.0303  151.3059 C   0  0  1  0  0  0  0  0  0  0  0  0
  147.5430  171.9932  150.5438 C   0  0  0  0  0  0  0  0  0  0  0  0
  148.5298  172.6286  151.5054 C   0  0  2  0  0  0  0  0  0  0  0  0
  149.5047  171.6541  152.0532 C   0  0  0  0  0  0  0  0  0  0  0  0
  147.6756  173.3861  152.4124 C   0  0  1  0  0  0  0  0  0  0  0  0
  146.4772  172.6782  152.4913 O   0  0  0  0  0  0  0  0  0  0  0  0
  148.1425  173.7316  153.7733 C   0  0  2  0  0  0  0  0  0  0  0  0
  148.1548  172.4772  154.6704 C   0  0  0  0  0  0  0  0  0  0  0  0
  147.1791  174.6933  154.4397 C   0  0  0  0  0  0  0  0  0  0  0  0
  148.0103  175.1459  155.6431 C   0  0  0  0  0  0  0  0  0  0  0  0
  149.3885  174.7776  155.2087 C   0  0  1  0  0  0  0  0  0  0  0  0
  149.3204  174.4144  153.8647 O   0  0  0  0  0  0  0  0  0  0  0  0
  150.3487  175.9052  155.4342 C   0  0  2  0  0  0  0  0  0  0  0  0
  150.1522  176.9377  154.3321 C   0  0  0  0  0  0  0  0  0  0  0  0
  151.7477  175.3610  155.2654 C   0  0  0  0  0  0  0  0  0  0  0  0
  152.5392  176.1953  156.2168 C   0  0  1  0  0  0  0  0  0  0  0  0
  153.0293  177.4833  155.6044 C   0  0  0  0  0  0  0  0  0  0  0  0
  151.4811  176.5436  157.2498 C   0  0  2  0  0  0  0  0  0  0  0  0
  150.2663  176.5359  156.6362 O   0  0  0  0  0  0  0  0  0  0  0  0
  151.7917  177.7706  157.7397 O   0  0  0  0  0  0  0  0  0  0  0  0
  151.2552  178.0520  159.0269 C   0  0  2  0  0  0  0  0  0  0  0  0
  151.6299  179.4709  159.2746 C   0  0  0  0  0  0  0  0  0  0  0  0
  152.0684  179.9326  160.6052 C   0  0  1  0  0  0  0  0  0  0  0  0
  152.6799  181.2236  160.8485 C   0  0  0  0  0  0  0  0  0  0  0  0
  151.7470  182.3610  161.1715 C   0  0  0  0  0  0  0  0  0  0  0  0
  150.3643  181.8842  161.4111 C   0  0  2  0  0  0  0  0  0  0  0  0
  149.4632  182.9536  161.9855 C   0  0  0  0  0  0  0  0  0  0  0  0
  150.3792  180.5978  162.1193 C   0  0  1  0  0  0  0  0  0  0  0  0
  151.0126  179.6131  161.4669 O   0  0  0  0  0  0  0  0  0  0  0  0
  150.8315  180.6080  163.5567 C   0  0  1  0  0  0  0  0  0  0  0  0
  150.2237  181.6572  164.4146 C   0  0  0  0  0  0  0  0  0  0  0  0
  150.4924  179.2682  164.0972 C   0  0  0  0  0  0  0  0  0  0  0  0
  151.4689  178.3268  164.3662 O   0  0  0  0  0  0  0  0  0  0  0  0
  149.3017  178.9787  164.3158 O   0  0  0  0  0  0  0  0  0  0  0  0
  151.9778  177.1581  160.0054 C   0  0  0  0  0  0  0  0  0  0  0  0
  152.4911  175.8658  159.3969 C   0  0  1  0  0  0  0  0  0  0  0  0
  152.7324  174.8990  160.3278 O   0  0  0  0  0  0  0  0  0  0  0  0
  154.0686  174.5726  160.3352 C   0  0  0  0  0  0  0  0  0  0  0  0
  151.5063  175.4635  158.3142 C   0  0  1  0  0  0  0  0  0  0  0  0
  150.1755  175.1670  158.9153 C   0  0  0  0  0  0  0  0  0  0  0  0
  145.1698  172.7901  150.5566 C   0  0  1  0  0  0  0  0  0  0  0  0
  144.5281  171.9018  149.7519 O   0  0  0  0  0  0  0  0  0  0  0  0
  143.3447  172.2698  149.1930 C   0  0  1  0  0  0  0  0  0  0  0  0
  143.4363  171.9730  147.8130 O   0  0  0  0  0  0  0  0  0  0  0  0
  142.1903  171.4014  149.7079 C   0  0  0  0  0  0  0  0  0  0  0  0
  141.3963  170.9950  148.6265 O   0  0  0  0  0  0  0  0  0  0  0  0
  142.9512  173.7026  149.3141 C   0  0  2  0  0  0  0  0  0  0  0  0
  143.4083  174.5197  148.1049 C   0  0  0  0  0  0  0  0  0  0  0  0
  143.3251  174.3594  150.6094 C   0  0  0  0  0  0  0  0  0  0  0  0
  144.2191  173.4812  151.4673 C   0  0  2  0  0  0  0  0  0  0  0  0
  144.9485  174.4464  152.4134 C   0  0  0  0  0  0  0  0  0  0  0  0
  1  2  1  6
  2  3  1  0
  3  4  1  1
  3  5  1  0
  5  6  1  1
  5  7  1  0
  7  8  1  1
  7  9  1  0
  9 10  1  0
 11 10  1  6
 11 12  1  0
 11 13  1  0
 13 14  1  6
 13 15  1  0
 15 16  1  0
 16 17  1  6
 16 18  1  0
 18 19  1  6
 18 20  1  0
 20 21  1  0
 21 22  1  1
 23 22  1  6
 23 24  1  0
 24 25  1  0
 25 26  1  0
 26 27  1  1
 26 28  1  0
 28 29  1  6
 28 30  1  0
 30 31  1  1
 30 32  1  0
 32 33  1  0
 32 34  2  0
 21 35  1  0
 35 36  1  0
 36 37  1  1
 37 38  1  0
 36 39  1  0
 39 40  1  1
  1 41  1  0
 41 42  1  1
 42 43  1  0
 43 44  1  6
 43 45  1  0
 45 46  1  0
 43 47  1  0
 47 48  1  6
 47 49  1  0
 49 50  1  0
 50 51  1  1
  6  1  1  0
 12  7  1  0
 19 13  1  0
 29 23  1  0
 50 41  1  0
 39 18  1  0
M  END
$$$$
