
     RDKit          3D

 51 56  0  0  0  0  0  0  0  0999 V2000
  190.5842  156.7393  122.8049 C   0  0  1  0  0  0  0  0  0  0  0  0
  191.7002  157.2919  123.6300 C   0  0  0  0  0  0  0  0  0  0  0  0
  191.5555  158.7904  123.4412 C   0  0  2  0  0  0  0  0  0  0  0  0
  191.0872  159.4801  124.6681 C   0  0  0  0  0  0  0  0  0  0  0  0
  190.7841  158.9014  122.2088 C   0  0  1  0  0  0  0  0  0  0  0  0
  189.9591  157.7784  122.1705 O   0  0  0  0  0  0  0  0  0  0  0  0
  189.9878  160.1163  121.9263 C   0  0  2  0  0  0  0  0  0  0  0  0
  189.1186  159.9073  120.6696 C   0  0  0  0  0  0  0  0  0  0  0  0
  190.8956  161.2847  121.5979 C   0  0  0  0  0  0  0  0  0  0  0  0
  189.9048  162.4493  121.6741 C   0  0  0  0  0  0  0  0  0  0  0  0
  188.7969  161.8464  122.4696 C   0  0  1  0  0  0  0  0  0  0  0  0
  189.2504  160.6219  122.9571 O   0  0  0  0  0  0  0  0  0  0  0  0
  188.3614  162.7602  123.5741 C   0  0  2  0  0  0  0  0  0  0  0  0
  187.2439  162.0804  124.3541 C   0  0  0  0  0  0  0  0  0  0  0  0
  187.7545  163.9910  122.9427 C   0  0  0  0  0  0  0  0  0  0  0  0
  188.0945  165.0626  123.9243 C   0  0  1  0  0  0  0  0  0  0  0  0
  187.0748  165.1970  125.0272 C   0  0  0  0  0  0  0  0  0  0  0  0
  189.3698  164.5059  124.5343 C   0  0  2  0  0  0  0  0  0  0  0  0
  189.3259  163.1482  124.4509 O   0  0  0  0  0  0  0  0  0  0  0  0
  189.4138  164.9317  125.8222 O   0  0  0  0  0  0  0  0  0  0  0  0
  190.7148  164.9576  126.3974 C   0  0  2  0  0  0  0  0  0  0  0  0
  190.4769  165.3333  127.8177 C   0  0  0  0  0  0  0  0  0  0  0  0
  191.5188  165.1594  128.8472 C   0  0  1  0  0  0  0  0  0  0  0  0
  191.5444  165.8899  130.0984 C   0  0  0  0  0  0  0  0  0  0  0  0
  190.8168  165.2641  131.2592 C   0  0  0  0  0  0  0  0  0  0  0  0
  190.3960  163.8755  130.9575 C   0  0  2  0  0  0  0  0  0  0  0  0
  189.8961  163.1331  132.1759 C   0  0  0  0  0  0  0  0  0  0  0  0
  191.4170  163.1917  130.1534 C   0  0  1  0  0  0  0  0  0  0  0  0
  191.6762  163.7744  128.9746 O   0  0  0  0  0  0  0  0  0  0  0  0
  192.7185  162.8551  130.8343 C   0  0  1  0  0  0  0  0  0  0  0  0
  192.8719  161.4419  131.2654 C   0  0  0  0  0  0  0  0  0  0  0  0
  193.7848  163.1943  129.8596 C   0  0  0  0  0  0  0  0  0  0  0  0
  193.7547  162.7240  128.5596 O   0  0  0  0  0  0  0  0  0  0  0  0
  194.7320  163.9195  130.2149 O   0  0  0  0  0  0  0  0  0  0  0  0
  191.4772  166.0593  125.7019 C   0  0  0  0  0  0  0  0  0  0  0  0
  191.0039  166.3383  124.2870 C   0  0  1  0  0  0  0  0  0  0  0  0
  191.9372  166.9856  123.5323 O   0  0  0  0  0  0  0  0  0  0  0  0
  193.1865  166.4642  123.7755 C   0  0  0  0  0  0  0  0  0  0  0  0
  190.5343  165.0165  123.7075 C   0  0  1  0  0  0  0  0  0  0  0  0
  191.6766  164.0648  123.6082 C   0  0  0  0  0  0  0  0  0  0  0  0
  191.0858  155.7771  121.7339 C   0  0  1  0  0  0  0  0  0  0  0  0
  191.7066  154.7458  122.3658 O   0  0  0  0  0  0  0  0  0  0  0  0
  191.9930  153.6251  121.6516 C   0  0  1  0  0  0  0  0  0  0  0  0
  193.3517  153.3199  121.9003 O   0  0  0  0  0  0  0  0  0  0  0  0
  191.2135  152.4136  122.1775 C   0  0  0  0  0  0  0  0  0  0  0  0
  192.1050  151.5096  122.7716 O   0  0  0  0  0  0  0  0  0  0  0  0
  191.8173  153.6969  120.1730 C   0  0  2  0  0  0  0  0  0  0  0  0
  193.1155  154.0903  119.4667 C   0  0  0  0  0  0  0  0  0  0  0  0
  190.6535  154.5207  119.7084 C   0  0  0  0  0  0  0  0  0  0  0  0
  189.9997  155.2912  120.8420 C   0  0  2  0  0  0  0  0  0  0  0  0
  189.2626  156.4576  120.1676 C   0  0  0  0  0  0  0  0  0  0  0  0
  1  2  1  6
  2  3  1  0
  3  4  1  1
  3  5  1  0
  5  6  1  1
  5  7  1  0
  7  8  1  6
  7  9  1  0
  9 10  1  0
 11 10  1  1
 11 12  1  0
 11 13  1  0
 13 14  1  1
 13 15  1  0
 15 16  1  0
 16 17  1  1
 16 18  1  0
 18 19  1  1
 18 20  1  0
 20 21  1  0
 21 22  1  1
 23 22  1  1
 23 24  1  0
 24 25  1  0
 25 26  1  0
 26 27  1  1
 26 28  1  0
 28 29  1  6
 28 30  1  0
 30 31  1  6
 30 32  1  0
 32 33  1  0
 32 34  2  0
 21 35  1  0
 35 36  1  0
 36 37  1  6
 37 38  1  0
 36 39  1  0
 39 40  1  1
  1 41  1  0
 41 42  1  1
 42 43  1  0
 43 44  1  6
 43 45  1  0
 45 46  1  0
 43 47  1  0
 47 48  1  6
 47 49  1  0
 49 50  1  0
 50 51  1  6
  6  1  1  0
 12  7  1  0
 19 13  1  0
 29 23  1  0
 50 41  1  0
 39 18  1  0
M  END
$$$$
