
     RDKit          3D

 51 56  0  0  0  0  0  0  0  0999 V2000
  211.8554  167.1425  140.9895 C   0  0  1  0  0  0  0  0  0  0  0  0
  211.4271  167.2352  142.4176 C   0  0  0  0  0  0  0  0  0  0  0  0
  212.3393  166.2424  143.1134 C   0  0  2  0  0  0  0  0  0  0  0  0
  213.3456  166.9001  143.9823 C   0  0  0  0  0  0  0  0  0  0  0  0
  212.7774  165.3709  142.0295 C   0  0  1  0  0  0  0  0  0  0  0  0
  212.8109  166.1681  140.8864 O   0  0  0  0  0  0  0  0  0  0  0  0
  214.0389  164.6057  142.1422 C   0  0  2  0  0  0  0  0  0  0  0  0
  215.2376  165.5659  142.2821 C   0  0  0  0  0  0  0  0  0  0  0  0
  214.3001  163.8180  140.8740 C   0  0  0  0  0  0  0  0  0  0  0  0
  215.4252  162.8894  141.3385 C   0  0  0  0  0  0  0  0  0  0  0  0
  215.2736  162.9558  142.8205 C   0  0  1  0  0  0  0  0  0  0  0  0
  214.0804  163.6242  143.0894 O   0  0  0  0  0  0  0  0  0  0  0  0
  215.2968  161.5878  143.4308 C   0  0  2  0  0  0  0  0  0  0  0  0
  214.2673  160.7209  142.7180 C   0  0  0  0  0  0  0  0  0  0  0  0
  214.8320  161.7132  144.8626 C   0  0  0  0  0  0  0  0  0  0  0  0
  215.5986  160.6327  145.5501 C   0  0  1  0  0  0  0  0  0  0  0  0
  214.9036  159.2952  145.5031 C   0  0  0  0  0  0  0  0  0  0  0  0
  216.8345  160.5467  144.6708 C   0  0  2  0  0  0  0  0  0  0  0  0
  216.4925  160.9403  143.4136 O   0  0  0  0  0  0  0  0  0  0  0  0
  217.2544  159.2563  144.6994 O   0  0  0  0  0  0  0  0  0  0  0  0
  218.6277  159.0690  144.3786 C   0  0  2  0  0  0  0  0  0  0  0  0
  218.7984  157.5907  144.3610 C   0  0  0  0  0  0  0  0  0  0  0  0
  218.5840  156.7742  145.5707 C   0  0  1  0  0  0  0  0  0  0  0  0
  217.3621  156.0447  145.8437 C   0  0  0  0  0  0  0  0  0  0  0  0
  217.2916  154.6312  145.3284 C   0  0  0  0  0  0  0  0  0  0  0  0
  218.6059  154.1648  144.8270 C   0  0  2  0  0  0  0  0  0  0  0  0
  218.6356  152.6801  144.5434 C   0  0  0  0  0  0  0  0  0  0  0  0
  219.6918  154.6880  145.6659 C   0  0  1  0  0  0  0  0  0  0  0  0
  219.7577  156.0257  145.7167 O   0  0  0  0  0  0  0  0  0  0  0  0
  219.8108  154.1347  147.0625 C   0  0  1  0  0  0  0  0  0  0  0  0
  221.1939  153.8612  147.5301 C   0  0  0  0  0  0  0  0  0  0  0  0
  219.1770  155.1399  147.9514 C   0  0  0  0  0  0  0  0  0  0  0  0
  219.8344  156.2996  148.3188 O   0  0  0  0  0  0  0  0  0  0  0  0
  218.0256  154.9399  148.3801 O   0  0  0  0  0  0  0  0  0  0  0  0
  219.4256  159.6584  145.5165 C   0  0  0  0  0  0  0  0  0  0  0  0
  218.7146  160.7798  146.2520 C   0  0  1  0  0  0  0  0  0  0  0  0
  219.5677  161.5807  146.9523 O   0  0  0  0  0  0  0  0  0  0  0  0
  219.7219  162.7857  146.3073 C   0  0  0  0  0  0  0  0  0  0  0  0
  217.8632  161.5108  145.2300 C   0  0  1  0  0  0  0  0  0  0  0  0
  218.7311  162.1444  144.1978 C   0  0  0  0  0  0  0  0  0  0  0  0
  210.7018  166.7593  140.0691 C   0  0  1  0  0  0  0  0  0  0  0  0
  209.5901  167.4037  140.5133 O   0  0  0  0  0  0  0  0  0  0  0  0
  208.4987  167.4477  139.7039 C   0  0  1  0  0  0  0  0  0  0  0  0
  207.3936  167.0418  140.4880 O   0  0  0  0  0  0  0  0  0  0  0  0
  208.1755  168.8858  139.2805 C   0  0  0  0  0  0  0  0  0  0  0  0
  208.6213  169.7729  140.2701 O   0  0  0  0  0  0  0  0  0  0  0  0
  208.5192  166.5878  138.4863 C   0  0  2  0  0  0  0  0  0  0  0  0
  207.8740  165.2254  138.7440 C   0  0  0  0  0  0  0  0  0  0  0  0
  209.8561  166.4588  137.8191 C   0  0  0  0  0  0  0  0  0  0  0  0
  210.9757  167.0724  138.6416 C   0  0  2  0  0  0  0  0  0  0  0  0
  212.2605  166.3876  138.1527 C   0  0  0  0  0  0  0  0  0  0  0  0
  1  2  1  1
  2  3  1  0
  3  4  1  6
  3  5  1  0
  5  6  1  6
  5  7  1  0
  7  8  1  1
  7  9  1  0
  9 10  1  0
 11 10  1  6
 11 12  1  0
 11 13  1  0
 13 14  1  6
 13 15  1  0
 15 16  1  0
 16 17  1  6
 16 18  1  0
 18 19  1  6
 18 20  1  0
 20 21  1  0
 21 22  1  1
 23 22  1  6
 23 24  1  0
 24 25  1  0
 25 26  1  0
 26 27  1  1
 26 28  1  0
 28 29  1  1
 28 30  1  0
 30 31  1  1
 30 32  1  0
 32 33  1  0
 32 34  2  0
 21 35  1  0
 35 36  1  0
 36 37  1  6
 37 38  1  0
 36 39  1  0
 39 40  1  6
  1 41  1  0
 41 42  1  1
 42 43  1  0
 43 44  1  1
 43 45  1  0
 45 46  1  0
 43 47  1  0
 47 48  1  1
 47 49  1  0
 49 50  1  0
 50 51  1  6
  6  1  1  0
 12  7  1  0
 19 13  1  0
 29 23  1  0
 50 41  1  0
 39 18  1  0
M  END
$$$$
