
     RDKit          3D

 51 56  0  0  0  0  0  0  0  0999 V2000
  200.2310  130.7195  128.5299 C   0  0  1  0  0  0  0  0  0  0  0  0
  199.7917  129.4282  129.1389 C   0  0  0  0  0  0  0  0  0  0  0  0
  200.7932  129.2204  130.2596 C   0  0  2  0  0  0  0  0  0  0  0  0
  200.1904  129.3856  131.6048 C   0  0  0  0  0  0  0  0  0  0  0  0
  201.9200  130.0567  129.8633 C   0  0  1  0  0  0  0  0  0  0  0  0
  201.3727  131.1305  129.1628 O   0  0  0  0  0  0  0  0  0  0  0  0
  202.8786  130.5559  130.8740 C   0  0  2  0  0  0  0  0  0  0  0  0
  204.1012  129.6198  130.9615 C   0  0  0  0  0  0  0  0  0  0  0  0
  202.2562  130.5350  132.2557 C   0  0  0  0  0  0  0  0  0  0  0  0
  203.2690  131.3734  133.0403 C   0  0  0  0  0  0  0  0  0  0  0  0
  203.9731  132.0950  131.9417 C   0  0  1  0  0  0  0  0  0  0  0  0
  203.2636  131.8605  130.7651 O   0  0  0  0  0  0  0  0  0  0  0  0
  204.0903  133.5583  132.2405 C   0  0  2  0  0  0  0  0  0  0  0  0
  203.9392  134.3333  130.9382 C   0  0  0  0  0  0  0  0  0  0  0  0
  205.4949  133.8182  132.7320 C   0  0  0  0  0  0  0  0  0  0  0  0
  205.3019  134.9470  133.6892 C   0  0  1  0  0  0  0  0  0  0  0  0
  205.3475  136.2992  133.0231 C   0  0  0  0  0  0  0  0  0  0  0  0
  203.8742  134.7010  134.1468 C   0  0  2  0  0  0  0  0  0  0  0  0
  203.2093  134.0609  133.1466 O   0  0  0  0  0  0  0  0  0  0  0  0
  203.3293  135.9137  134.4202 O   0  0  0  0  0  0  0  0  0  0  0  0
  202.2239  135.8825  135.3151 C   0  0  2  0  0  0  0  0  0  0  0  0
  201.7447  137.2910  135.3502 C   0  0  0  0  0  0  0  0  0  0  0  0
  201.3394  137.9995  134.1215 C   0  0  1  0  0  0  0  0  0  0  0  0
  200.4665  139.1560  134.1094 C   0  0  0  0  0  0  0  0  0  0  0  0
  201.1307  140.5030  134.2228 C   0  0  0  0  0  0  0  0  0  0  0  0
  202.6033  140.4004  134.0911 C   0  0  2  0  0  0  0  0  0  0  0  0
  203.2770  141.7456  133.9424 C   0  0  0  0  0  0  0  0  0  0  0  0
  202.9611  139.3809  133.0965 C   0  0  1  0  0  0  0  0  0  0  0  0
  202.5187  138.1484  133.3822 O   0  0  0  0  0  0  0  0  0  0  0  0
  202.6596  139.6911  131.6530 C   0  0  1  0  0  0  0  0  0  0  0  0
  203.2822  140.9290  131.1178 C   0  0  0  0  0  0  0  0  0  0  0  0
  203.1401  138.5201  130.8785 C   0  0  0  0  0  0  0  0  0  0  0  0
  202.2776  137.5221  130.4636 O   0  0  0  0  0  0  0  0  0  0  0  0
  204.3480  138.4282  130.5922 O   0  0  0  0  0  0  0  0  0  0  0  0
  202.7697  135.4984  136.6692 C   0  0  0  0  0  0  0  0  0  0  0  0
  204.0315  134.6568  136.6091 C   0  0  1  0  0  0  0  0  0  0  0  0
  204.2612  133.9605  137.7588 O   0  0  0  0  0  0  0  0  0  0  0  0
  203.0719  133.6964  138.3974 C   0  0  0  0  0  0  0  0  0  0  0  0
  203.9319  133.7963  135.3627 C   0  0  1  0  0  0  0  0  0  0  0  0
  202.7823  132.8554  135.4791 C   0  0  0  0  0  0  0  0  0  0  0  0
  200.5506  130.5737  127.0462 C   0  0  1  0  0  0  0  0  0  0  0  0
  201.3276  129.4677  126.8999 O   0  0  0  0  0  0  0  0  0  0  0  0
  201.5141  128.9665  125.6500 C   0  0  1  0  0  0  0  0  0  0  0  0
  202.9067  128.7767  125.4910 O   0  0  0  0  0  0  0  0  0  0  0  0
  200.9065  127.5649  125.5143 C   0  0  0  0  0  0  0  0  0  0  0  0
  201.8398  126.7103  124.9114 O   0  0  0  0  0  0  0  0  0  0  0  0
  201.0457  129.7995  124.5058 C   0  0  2  0  0  0  0  0  0  0  0  0
  202.1602  130.6958  123.9641 C   0  0  0  0  0  0  0  0  0  0  0  0
  199.7789  130.5641  124.7501 C   0  0  0  0  0  0  0  0  0  0  0  0
  199.3309  130.4950  126.1995 C   0  0  2  0  0  0  0  0  0  0  0  0
  198.4258  131.7190  126.4031 C   0  0  0  0  0  0  0  0  0  0  0  0
  1  2  1  1
  2  3  1  0
  3  4  1  1
  3  5  1  0
  5  6  1  1
  5  7  1  0
  7  8  1  1
  7  9  1  0
  9 10  1  0
 11 10  1  1
 11 12  1  0
 11 13  1  0
 13 14  1  6
 13 15  1  0
 15 16  1  0
 16 17  1  6
 16 18  1  0
 18 19  1  6
 18 20  1  0
 20 21  1  0
 21 22  1  1
 23 22  1  1
 23 24  1  0
 24 25  1  0
 25 26  1  0
 26 27  1  6
 26 28  1  0
 28 29  1  1
 28 30  1  0
 30 31  1  6
 30 32  1  0
 32 33  1  0
 32 34  2  0
 21 35  1  0
 35 36  1  0
 36 37  1  1
 37 38  1  0
 36 39  1  0
 39 40  1  1
  1 41  1  0
 41 42  1  1
 42 43  1  0
 43 44  1  6
 43 45  1  0
 45 46  1  0
 43 47  1  0
 47 48  1  1
 47 49  1  0
 49 50  1  0
 50 51  1  1
  6  1  1  0
 12  7  1  0
 19 13  1  0
 29 23  1  0
 50 41  1  0
 39 18  1  0
M  END
$$$$
