
     RDKit          3D

 51 56  0  0  0  0  0  0  0  0999 V2000
  131.7867  140.1345  127.2414 C   0  0  1  0  0  0  0  0  0  0  0  0
  131.7372  138.9041  126.3957 C   0  0  0  0  0  0  0  0  0  0  0  0
  131.8044  137.7841  127.4171 C   0  0  2  0  0  0  0  0  0  0  0  0
  130.5254  137.0432  127.5402 C   0  0  0  0  0  0  0  0  0  0  0  0
  132.3820  138.4316  128.5890 C   0  0  1  0  0  0  0  0  0  0  0  0
  131.9507  139.7565  128.5465 O   0  0  0  0  0  0  0  0  0  0  0  0
  132.1583  137.8764  129.9423 C   0  0  2  0  0  0  0  0  0  0  0  0
  132.7663  136.4631  130.0491 C   0  0  0  0  0  0  0  0  0  0  0  0
  130.6768  137.6982  130.2076 C   0  0  0  0  0  0  0  0  0  0  0  0
  130.6830  137.4456  131.7176 C   0  0  0  0  0  0  0  0  0  0  0  0
  132.0180  137.9860  132.1045 C   0  0  1  0  0  0  0  0  0  0  0  0
  132.5350  138.6560  130.9970 O   0  0  0  0  0  0  0  0  0  0  0  0
  131.9155  138.8817  133.3010 C   0  0  2  0  0  0  0  0  0  0  0  0
  133.2763  139.5194  133.5477 C   0  0  0  0  0  0  0  0  0  0  0  0
  131.6256  138.0145  134.5034 C   0  0  0  0  0  0  0  0  0  0  0  0
  130.7975  138.9123  135.3611 C   0  0  1  0  0  0  0  0  0  0  0  0
  131.6245  139.7901  136.2666 C   0  0  0  0  0  0  0  0  0  0  0  0
  130.1508  139.8023  134.3133 C   0  0  2  0  0  0  0  0  0  0  0  0
  130.9816  139.8682  133.2372 O   0  0  0  0  0  0  0  0  0  0  0  0
  129.9662  141.0197  134.8840 O   0  0  0  0  0  0  0  0  0  0  0  0
  128.9520  141.8137  134.2800 C   0  0  2  0  0  0  0  0  0  0  0  0
  129.0338  143.1152  134.9972 C   0  0  0  0  0  0  0  0  0  0  0  0
  128.4753  144.3519  134.4189 C   0  0  1  0  0  0  0  0  0  0  0  0
  127.1226  144.4644  133.9117 C   0  0  0  0  0  0  0  0  0  0  0  0
  126.0663  144.8897  134.8975 C   0  0  0  0  0  0  0  0  0  0  0  0
  126.6618  145.3459  136.1756 C   0  0  2  0  0  0  0  0  0  0  0  0
  125.6593  146.0169  137.0869 C   0  0  0  0  0  0  0  0  0  0  0  0
  127.9092  146.0806  135.9288 C   0  0  1  0  0  0  0  0  0  0  0  0
  128.8563  145.3698  135.3010 O   0  0  0  0  0  0  0  0  0  0  0  0
  127.7938  147.4339  135.2761 C   0  0  1  0  0  0  0  0  0  0  0  0
  127.3474  148.5393  136.1622 C   0  0  0  0  0  0  0  0  0  0  0  0
  129.1435  147.7417  134.7414 C   0  0  0  0  0  0  0  0  0  0  0  0
  129.3637  147.9197  133.3879 O   0  0  0  0  0  0  0  0  0  0  0  0
  130.1049  147.8435  135.5255 O   0  0  0  0  0  0  0  0  0  0  0  0
  127.6337  141.1461  134.5888 C   0  0  0  0  0  0  0  0  0  0  0  0
  127.7366  139.6465  134.7995 C   0  0  1  0  0  0  0  0  0  0  0  0
  126.5449  139.0039  134.6365 O   0  0  0  0  0  0  0  0  0  0  0  0
  126.5374  137.8318  135.3562 C   0  0  0  0  0  0  0  0  0  0  0  0
  128.8485  139.1467  133.8954 C   0  0  1  0  0  0  0  0  0  0  0  0
  128.4857  139.3649  132.4667 C   0  0  0  0  0  0  0  0  0  0  0  0
  132.9574  141.0380  126.8702 C   0  0  1  0  0  0  0  0  0  0  0  0
  133.0106  141.1054  125.5134 O   0  0  0  0  0  0  0  0  0  0  0  0
  133.7872  142.0633  124.9413 C   0  0  1  0  0  0  0  0  0  0  0  0
  134.5859  141.4142  123.9709 O   0  0  0  0  0  0  0  0  0  0  0  0
  132.9415  143.0677  124.1488 C   0  0  0  0  0  0  0  0  0  0  0  0
  133.7345  143.6635  123.1584 O   0  0  0  0  0  0  0  0  0  0  0  0
  134.7059  142.8204  125.8386 C   0  0  2  0  0  0  0  0  0  0  0  0
  136.0949  142.1829  125.8954 C   0  0  0  0  0  0  0  0  0  0  0  0
  134.1650  143.1107  127.2069 C   0  0  0  0  0  0  0  0  0  0  0  0
  132.8547  142.3918  127.4765 C   0  0  2  0  0  0  0  0  0  0  0  0
  132.7413  142.3152  129.0062 C   0  0  0  0  0  0  0  0  0  0  0  0
  1  2  1  6
  2  3  1  0
  3  4  1  1
  3  5  1  0
  5  6  1  1
  5  7  1  0
  7  8  1  6
  7  9  1  0
  9 10  1  0
 11 10  1  6
 11 12  1  0
 11 13  1  0
 13 14  1  1
 13 15  1  0
 15 16  1  0
 16 17  1  1
 16 18  1  0
 18 19  1  6
 18 20  1  0
 20 21  1  0
 21 22  1  1
 23 22  1  1
 23 24  1  0
 24 25  1  0
 25 26  1  0
 26 27  1  6
 26 28  1  0
 28 29  1  6
 28 30  1  0
 30 31  1  1
 30 32  1  0
 32 33  1  0
 32 34  2  0
 21 35  1  0
 35 36  1  0
 36 37  1  6
 37 38  1  0
 36 39  1  0
 39 40  1  6
  1 41  1  0
 41 42  1  6
 42 43  1  0
 43 44  1  6
 43 45  1  0
 45 46  1  0
 43 47  1  0
 47 48  1  1
 47 49  1  0
 49 50  1  0
 50 51  1  1
  6  1  1  0
 12  7  1  0
 19 13  1  0
 29 23  1  0
 50 41  1  0
 39 18  1  0
M  END
$$$$
