
     RDKit          3D

 51 56  0  0  0  0  0  0  0  0999 V2000
  128.3712  148.0552  134.3670 C   0  0  1  0  0  0  0  0  0  0  0  0
  128.6606  147.3699  135.6625 C   0  0  0  0  0  0  0  0  0  0  0  0
  128.9482  145.9422  135.2373 C   0  0  2  0  0  0  0  0  0  0  0  0
  130.3762  145.5736  135.3956 C   0  0  0  0  0  0  0  0  0  0  0  0
  128.3168  145.8477  133.9264 C   0  0  1  0  0  0  0  0  0  0  0  0
  128.4028  147.1217  133.3668 O   0  0  0  0  0  0  0  0  0  0  0  0
  128.7703  144.8387  132.9436 C   0  0  2  0  0  0  0  0  0  0  0  0
  129.4583  145.5270  131.7471 C   0  0  0  0  0  0  0  0  0  0  0  0
  127.5865  144.0975  132.3552 C   0  0  0  0  0  0  0  0  0  0  0  0
  128.2941  142.9336  131.6562 C   0  0  0  0  0  0  0  0  0  0  0  0
  129.6178  142.9341  132.3429 C   0  0  1  0  0  0  0  0  0  0  0  0
  129.5284  143.8103  133.4231 O   0  0  0  0  0  0  0  0  0  0  0  0
  130.0062  141.5532  132.7750 C   0  0  2  0  0  0  0  0  0  0  0  0
  129.0183  141.0800  133.8331 C   0  0  0  0  0  0  0  0  0  0  0  0
  131.3514  141.6438  133.4563 C   0  0  0  0  0  0  0  0  0  0  0  0
  131.9739  140.3283  133.1254 C   0  0  1  0  0  0  0  0  0  0  0  0
  131.6148  139.2422  134.1081 C   0  0  0  0  0  0  0  0  0  0  0  0
  131.2928  140.0065  131.8060 C   0  0  2  0  0  0  0  0  0  0  0  0
  130.0738  140.6118  131.7958 O   0  0  0  0  0  0  0  0  0  0  0  0
  131.1864  138.6555  131.7320 O   0  0  0  0  0  0  0  0  0  0  0  0
  131.0560  138.1391  130.4128 C   0  0  2  0  0  0  0  0  0  0  0  0
  130.8373  136.6807  130.6133 C   0  0  0  0  0  0  0  0  0  0  0  0
  129.4806  136.1079  130.6977 C   0  0  1  0  0  0  0  0  0  0  0  0
  129.1581  134.7438  130.3304 C   0  0  0  0  0  0  0  0  0  0  0  0
  129.2602  133.7101  131.4210 C   0  0  0  0  0  0  0  0  0  0  0  0
  129.4535  134.3343  132.7511 C   0  0  2  0  0  0  0  0  0  0  0  0
  129.3031  133.3524  133.8907 C   0  0  0  0  0  0  0  0  0  0  0  0
  128.6746  135.5750  132.8552 C   0  0  1  0  0  0  0  0  0  0  0  0
  128.9944  136.5081  131.9478 O   0  0  0  0  0  0  0  0  0  0  0  0
  127.1749  135.4433  132.9202 C   0  0  1  0  0  0  0  0  0  0  0  0
  126.6629  134.3320  133.7624 C   0  0  0  0  0  0  0  0  0  0  0  0
  126.6777  136.7368  133.4510 C   0  0  0  0  0  0  0  0  0  0  0  0
  126.4622  136.9308  134.8030 O   0  0  0  0  0  0  0  0  0  0  0  0
  126.4471  137.6740  132.6649 O   0  0  0  0  0  0  0  0  0  0  0  0
  132.3803  138.3636  129.7238 C   0  0  0  0  0  0  0  0  0  0  0  0
  133.1615  139.5490  130.2608 C   0  0  1  0  0  0  0  0  0  0  0  0
  134.0998  140.0082  129.3843 O   0  0  0  0  0  0  0  0  0  0  0  0
  135.3221  139.4409  129.6599 C   0  0  0  0  0  0  0  0  0  0  0  0
  132.1456  140.5895  130.6956 C   0  0  1  0  0  0  0  0  0  0  0  0
  131.3695  141.0724  129.5188 C   0  0  0  0  0  0  0  0  0  0  0  0
  126.9893  148.6993  134.3560 C   0  0  1  0  0  0  0  0  0  0  0  0
  126.9995  149.7099  135.2653 O   0  0  0  0  0  0  0  0  0  0  0  0
  125.9818  150.6110  135.2455 C   0  0  1  0  0  0  0  0  0  0  0  0
  125.5097  150.7215  136.5744 O   0  0  0  0  0  0  0  0  0  0  0  0
  126.4858  152.0145  134.8875 C   0  0  0  0  0  0  0  0  0  0  0  0
  125.4239  152.9254  134.9732 O   0  0  0  0  0  0  0  0  0  0  0  0
  124.8085  150.2937  134.3822 C   0  0  2  0  0  0  0  0  0  0  0  0
  123.7153  149.5594  135.1597 C   0  0  0  0  0  0  0  0  0  0  0  0
  125.1351  149.6078  133.0892 C   0  0  0  0  0  0  0  0  0  0  0  0
  126.5920  149.1868  133.0086 C   0  0  2  0  0  0  0  0  0  0  0  0
  126.6310  148.0574  131.9686 C   0  0  0  0  0  0  0  0  0  0  0  0
  1  2  1  1
  2  3  1  0
  3  4  1  6
  3  5  1  0
  5  6  1  6
  5  7  1  0
  7  8  1  6
  7  9  1  0
  9 10  1  0
 11 10  1  1
 11 12  1  0
 11 13  1  0
 13 14  1  1
 13 15  1  0
 15 16  1  0
 16 17  1  1
 16 18  1  0
 18 19  1  1
 18 20  1  0
 20 21  1  0
 21 22  1  1
 23 22  1  1
 23 24  1  0
 24 25  1  0
 25 26  1  0
 26 27  1  1
 26 28  1  0
 28 29  1  6
 28 30  1  0
 30 31  1  1
 30 32  1  0
 32 33  1  0
 32 34  2  0
 21 35  1  0
 35 36  1  0
 36 37  1  6
 37 38  1  0
 36 39  1  0
 39 40  1  6
  1 41  1  0
 41 42  1  1
 42 43  1  0
 43 44  1  1
 43 45  1  0
 45 46  1  0
 43 47  1  0
 47 48  1  1
 47 49  1  0
 49 50  1  0
 50 51  1  6
  6  1  1  0
 12  7  1  0
 19 13  1  0
 29 23  1  0
 50 41  1  0
 39 18  1  0
M  END
$$$$
