
     RDKit          3D

 51 56  0  0  0  0  0  0  0  0999 V2000
  118.1377  174.2765  147.4010 C   0  0  1  0  0  0  0  0  0  0  0  0
  119.2069  174.3545  146.3607 C   0  0  0  0  0  0  0  0  0  0  0  0
  118.6712  173.4674  145.2525 C   0  0  2  0  0  0  0  0  0  0  0  0
  118.2610  174.2351  144.0515 C   0  0  0  0  0  0  0  0  0  0  0  0
  117.7009  172.6218  145.9378 C   0  0  1  0  0  0  0  0  0  0  0  0
  117.1806  173.3968  146.9732 O   0  0  0  0  0  0  0  0  0  0  0  0
  116.5964  171.9837  145.1877 C   0  0  2  0  0  0  0  0  0  0  0  0
  115.7399  173.0539  144.4808 C   0  0  0  0  0  0  0  0  0  0  0  0
  115.6504  171.2718  146.1339 C   0  0  0  0  0  0  0  0  0  0  0  0
  114.8231  170.4450  145.1459 C   0  0  0  0  0  0  0  0  0  0  0  0
  115.7075  170.4432  143.9453 C   0  0  1  0  0  0  0  0  0  0  0  0
  116.9358  170.9784  144.3296 O   0  0  0  0  0  0  0  0  0  0  0  0
  115.8523  169.0637  143.3793 C   0  0  2  0  0  0  0  0  0  0  0  0
  116.8370  168.2860  144.2424 C   0  0  0  0  0  0  0  0  0  0  0  0
  116.4869  169.1890  142.0142 C   0  0  0  0  0  0  0  0  0  0  0  0
  115.8869  168.0432  141.2692 C   0  0  1  0  0  0  0  0  0  0  0  0
  116.6566  166.7582  141.4445 C   0  0  0  0  0  0  0  0  0  0  0  0
  114.5572  167.8916  141.9882 C   0  0  2  0  0  0  0  0  0  0  0  0
  114.7093  168.3357  143.2657 O   0  0  0  0  0  0  0  0  0  0  0  0
  114.2301  166.5750  141.9467 O   0  0  0  0  0  0  0  0  0  0  0  0
  112.8423  166.3005  142.0976 C   0  0  2  0  0  0  0  0  0  0  0  0
  112.7681  164.8147  142.1390 C   0  0  0  0  0  0  0  0  0  0  0  0
  111.7006  164.1152  142.8786 C   0  0  1  0  0  0  0  0  0  0  0  0
  111.7424  162.7057  143.2122 C   0  0  0  0  0  0  0  0  0  0  0  0
  112.3800  162.3432  144.5277 C   0  0  0  0  0  0  0  0  0  0  0  0
  112.6445  163.5424  145.3572 C   0  0  2  0  0  0  0  0  0  0  0  0
  113.0418  163.2022  146.7756 C   0  0  0  0  0  0  0  0  0  0  0  0
  111.5626  164.5235  145.2030 C   0  0  1  0  0  0  0  0  0  0  0  0
  111.3857  164.9610  143.9485 O   0  0  0  0  0  0  0  0  0  0  0  0
  110.2230  164.1704  145.7960 C   0  0  1  0  0  0  0  0  0  0  0  0
  110.2065  163.9577  147.2660 C   0  0  0  0  0  0  0  0  0  0  0  0
  109.3175  165.2934  145.4477 C   0  0  0  0  0  0  0  0  0  0  0  0
  108.4130  165.8049  146.3599 O   0  0  0  0  0  0  0  0  0  0  0  0
  109.3687  165.7912  144.3079 O   0  0  0  0  0  0  0  0  0  0  0  0
  112.1593  166.8080  140.8507 C   0  0  0  0  0  0  0  0  0  0  0  0
  112.8832  167.9592  140.1764 C   0  0  1  0  0  0  0  0  0  0  0  0
  112.0759  168.6836  139.3500 O   0  0  0  0  0  0  0  0  0  0  0  0
  111.4175  167.8467  138.4792 C   0  0  0  0  0  0  0  0  0  0  0  0
  113.5473  168.7697  141.2745 C   0  0  1  0  0  0  0  0  0  0  0  0
  112.5150  169.3647  142.1692 C   0  0  0  0  0  0  0  0  0  0  0  0
  118.6723  173.7668  148.7348 C   0  0  1  0  0  0  0  0  0  0  0  0
  119.8263  174.4357  148.9978 O   0  0  0  0  0  0  0  0  0  0  0  0
  120.3464  174.3644  150.2518 C   0  0  1  0  0  0  0  0  0  0  0  0
  121.7131  174.0296  150.1074 O   0  0  0  0  0  0  0  0  0  0  0  0
  120.3463  175.7374  150.9351 C   0  0  0  0  0  0  0  0  0  0  0  0
  121.6565  176.2335  150.9815 O   0  0  0  0  0  0  0  0  0  0  0  0
  119.7417  173.3705  151.1839 C   0  0  2  0  0  0  0  0  0  0  0  0
  120.4846  172.0342  151.1471 C   0  0  0  0  0  0  0  0  0  0  0  0
  118.2585  173.1921  151.0514 C   0  0  0  0  0  0  0  0  0  0  0  0
  117.6933  173.9187  149.8436 C   0  0  2  0  0  0  0  0  0  0  0  0
  116.3695  173.2079  149.5254 C   0  0  0  0  0  0  0  0  0  0  0  0
  1  2  1  6
  2  3  1  0
  3  4  1  6
  3  5  1  0
  5  6  1  1
  5  7  1  0
  7  8  1  6
  7  9  1  0
  9 10  1  0
 11 10  1  1
 11 12  1  0
 11 13  1  0
 13 14  1  1
 13 15  1  0
 15 16  1  0
 16 17  1  1
 16 18  1  0
 18 19  1  1
 18 20  1  0
 20 21  1  0
 21 22  1  6
 23 22  1  1
 23 24  1  0
 24 25  1  0
 25 26  1  0
 26 27  1  1
 26 28  1  0
 28 29  1  6
 28 30  1  0
 30 31  1  1
 30 32  1  0
 32 33  1  0
 32 34  2  0
 21 35  1  0
 35 36  1  0
 36 37  1  1
 37 38  1  0
 36 39  1  0
 39 40  1  1
  1 41  1  0
 41 42  1  1
 42 43  1  0
 43 44  1  6
 43 45  1  0
 45 46  1  0
 43 47  1  0
 47 48  1  6
 47 49  1  0
 49 50  1  0
 50 51  1  6
  6  1  1  0
 12  7  1  0
 19 13  1  0
 29 23  1  0
 50 41  1  0
 39 18  1  0
M  END
$$$$
