
     RDKit          3D

 51 56  0  0  0  0  0  0  0  0999 V2000
  127.3722  136.2360  133.0193 C   0  0  1  0  0  0  0  0  0  0  0  0
  125.9903  136.5778  132.5664 C   0  0  0  0  0  0  0  0  0  0  0  0
  126.1698  137.9369  131.9163 C   0  0  2  0  0  0  0  0  0  0  0  0
  126.0119  137.8925  130.4421 C   0  0  0  0  0  0  0  0  0  0  0  0
  127.4149  138.4258  132.4968 C   0  0  1  0  0  0  0  0  0  0  0  0
  128.1930  137.2956  132.7428 O   0  0  0  0  0  0  0  0  0  0  0  0
  128.2236  139.4459  131.7933 C   0  0  2  0  0  0  0  0  0  0  0  0
  128.6816  138.9135  130.4202 C   0  0  0  0  0  0  0  0  0  0  0  0
  129.4995  139.7358  132.5583 C   0  0  0  0  0  0  0  0  0  0  0  0
  129.9801  141.0034  131.8469 C   0  0  0  0  0  0  0  0  0  0  0  0
  128.7270  141.4665  131.1843 C   0  0  1  0  0  0  0  0  0  0  0  0
  127.6800  140.6926  131.6821 O   0  0  0  0  0  0  0  0  0  0  0  0
  128.4988  142.9290  131.4153 C   0  0  2  0  0  0  0  0  0  0  0  0
  127.0186  143.1507  131.6969 C   0  0  0  0  0  0  0  0  0  0  0  0
  128.8015  143.6530  130.1246 C   0  0  0  0  0  0  0  0  0  0  0  0
  129.3208  144.9681  130.6023 C   0  0  1  0  0  0  0  0  0  0  0  0
  128.2293  145.9799  130.8457 C   0  0  0  0  0  0  0  0  0  0  0  0
  129.9046  144.5795  131.9500 C   0  0  2  0  0  0  0  0  0  0  0  0
  129.2192  143.5005  132.4173 O   0  0  0  0  0  0  0  0  0  0  0  0
  129.7712  145.6552  132.7668 O   0  0  0  0  0  0  0  0  0  0  0  0
  130.6756  145.6860  133.8646 C   0  0  2  0  0  0  0  0  0  0  0  0
  130.2480  146.8727  134.6545 C   0  0  0  0  0  0  0  0  0  0  0  0
  128.8677  147.0097  135.1562 C   0  0  1  0  0  0  0  0  0  0  0  0
  128.5313  147.5948  136.4385 C   0  0  0  0  0  0  0  0  0  0  0  0
  128.2909  149.0815  136.4587 C   0  0  0  0  0  0  0  0  0  0  0  0
  128.2166  149.6430  135.0892 C   0  0  2  0  0  0  0  0  0  0  0  0
  127.7243  151.0721  135.0639 C   0  0  0  0  0  0  0  0  0  0  0  0
  127.5378  148.7057  134.1850 C   0  0  1  0  0  0  0  0  0  0  0  0
  128.1357  147.5114  134.0737 O   0  0  0  0  0  0  0  0  0  0  0  0
  126.0591  148.5001  134.3895 C   0  0  1  0  0  0  0  0  0  0  0  0
  125.1862  149.6125  133.9344 C   0  0  0  0  0  0  0  0  0  0  0  0
  125.7154  147.2638  133.6441 C   0  0  0  0  0  0  0  0  0  0  0  0
  125.2764  147.3060  132.3336 O   0  0  0  0  0  0  0  0  0  0  0  0
  125.8228  146.1588  134.2070 O   0  0  0  0  0  0  0  0  0  0  0  0
  132.0506  145.9274  133.2901 C   0  0  0  0  0  0  0  0  0  0  0  0
  132.2213  145.4254  131.8679 C   0  0  1  0  0  0  0  0  0  0  0  0
  133.5275  145.2403  131.5228 O   0  0  0  0  0  0  0  0  0  0  0  0
  133.8976  143.9360  131.7543 C   0  0  0  0  0  0  0  0  0  0  0  0
  131.3530  144.1886  131.7267 C   0  0  1  0  0  0  0  0  0  0  0  0
  131.8418  143.1119  132.6334 C   0  0  0  0  0  0  0  0  0  0  0  0
  127.4359  135.9803  134.5211 C   0  0  1  0  0  0  0  0  0  0  0  0
  126.4268  135.1255  134.8358 O   0  0  0  0  0  0  0  0  0  0  0  0
  126.4398  134.5275  136.0565 C   0  0  1  0  0  0  0  0  0  0  0  0
  125.1535  134.7130  136.6148 O   0  0  0  0  0  0  0  0  0  0  0  0
  126.6007  133.0074  135.9318 C   0  0  0  0  0  0  0  0  0  0  0  0
  125.5134  132.4820  135.2200 O   0  0  0  0  0  0  0  0  0  0  0  0
  127.4317  135.0295  137.0498 C   0  0  2  0  0  0  0  0  0  0  0  0
  126.8359  136.1166  137.9455 C   0  0  0  0  0  0  0  0  0  0  0  0
  128.7567  135.4372  136.4778 C   0  0  0  0  0  0  0  0  0  0  0  0
  128.7534  135.4481  134.9592 C   0  0  2  0  0  0  0  0  0  0  0  0
  129.9004  136.3873  134.5577 C   0  0  0  0  0  0  0  0  0  0  0  0
  1  2  1  1
  2  3  1  0
  3  4  1  6
  3  5  1  0
  5  6  1  6
  5  7  1  0
  7  8  1  6
  7  9  1  0
  9 10  1  0
 11 10  1  1
 11 12  1  0
 11 13  1  0
 13 14  1  1
 13 15  1  0
 15 16  1  0
 16 17  1  1
 16 18  1  0
 18 19  1  1
 18 20  1  0
 20 21  1  0
 21 22  1  1
 23 22  1  6
 23 24  1  0
 24 25  1  0
 25 26  1  0
 26 27  1  1
 26 28  1  0
 28 29  1  1
 28 30  1  0
 30 31  1  6
 30 32  1  0
 32 33  1  0
 32 34  2  0
 21 35  1  0
 35 36  1  0
 36 37  1  1
 37 38  1  0
 36 39  1  0
 39 40  1  1
  1 41  1  0
 41 42  1  6
 42 43  1  0
 43 44  1  1
 43 45  1  0
 45 46  1  0
 43 47  1  0
 47 48  1  6
 47 49  1  0
 49 50  1  0
 50 51  1  1
  6  1  1  0
 12  7  1  0
 19 13  1  0
 29 23  1  0
 50 41  1  0
 39 18  1  0
M  END
$$$$
