
     RDKit          3D

 51 56  0  0  0  0  0  0  0  0999 V2000
  171.6751  145.9413  127.1409 C   0  0  1  0  0  0  0  0  0  0  0  0
  170.8301  145.5355  128.3041 C   0  0  0  0  0  0  0  0  0  0  0  0
  169.4629  146.0843  127.9417 C   0  0  2  0  0  0  0  0  0  0  0  0
  168.4869  145.0179  127.6093 C   0  0  0  0  0  0  0  0  0  0  0  0
  169.7652  147.1204  126.9613 C   0  0  1  0  0  0  0  0  0  0  0  0
  170.9090  146.6910  126.2900 O   0  0  0  0  0  0  0  0  0  0  0  0
  168.7430  147.5510  125.9819 C   0  0  2  0  0  0  0  0  0  0  0  0
  169.4165  148.1824  124.7465 C   0  0  0  0  0  0  0  0  0  0  0  0
  167.8704  148.6435  126.5669 C   0  0  0  0  0  0  0  0  0  0  0  0
  166.7324  148.6820  125.5434 C   0  0  0  0  0  0  0  0  0  0  0  0
  166.8858  147.3567  124.8773 C   0  0  1  0  0  0  0  0  0  0  0  0
  167.8127  146.6224  125.6153 O   0  0  0  0  0  0  0  0  0  0  0  0
  165.5706  146.6474  124.7694 C   0  0  2  0  0  0  0  0  0  0  0  0
  165.8277  145.1464  124.7627 C   0  0  0  0  0  0  0  0  0  0  0  0
  164.9733  146.9847  123.4235 C   0  0  0  0  0  0  0  0  0  0  0  0
  163.5072  146.9606  123.7021 C   0  0  1  0  0  0  0  0  0  0  0  0
  162.9027  145.5862  123.5605 C   0  0  0  0  0  0  0  0  0  0  0  0
  163.4837  147.3303  125.1754 C   0  0  2  0  0  0  0  0  0  0  0  0
  164.6553  146.9243  125.7365 O   0  0  0  0  0  0  0  0  0  0  0  0
  162.4149  146.7011  125.7268 O   0  0  0  0  0  0  0  0  0  0  0  0
  161.9270  147.2935  126.9246 C   0  0  2  0  0  0  0  0  0  0  0  0
  160.8586  146.3634  127.3811 C   0  0  0  0  0  0  0  0  0  0  0  0
  160.5054  146.2336  128.8074 C   0  0  1  0  0  0  0  0  0  0  0  0
  159.2780  145.6263  129.2811 C   0  0  0  0  0  0  0  0  0  0  0  0
  159.3156  144.1427  129.5380 C   0  0  0  0  0  0  0  0  0  0  0  0
  160.6974  143.6108  129.4758 C   0  0  2  0  0  0  0  0  0  0  0  0
  160.8050  142.1889  129.9779 C   0  0  0  0  0  0  0  0  0  0  0  0
  161.6461  144.5753  130.0473 C   0  0  1  0  0  0  0  0  0  0  0  0
  161.6686  145.7639  129.4284 O   0  0  0  0  0  0  0  0  0  0  0  0
  161.5912  144.7955  131.5370 C   0  0  1  0  0  0  0  0  0  0  0  0
  162.6079  144.0618  132.3334 C   0  0  0  0  0  0  0  0  0  0  0  0
  161.7645  146.2557  131.7369 C   0  0  0  0  0  0  0  0  0  0  0  0
  160.7664  147.1555  131.4112 O   0  0  0  0  0  0  0  0  0  0  0  0
  162.8324  146.6873  132.2091 O   0  0  0  0  0  0  0  0  0  0  0  0
  161.3153  148.6184  126.5381 C   0  0  0  0  0  0  0  0  0  0  0  0
  161.9216  149.2371  125.2917 C   0  0  1  0  0  0  0  0  0  0  0  0
  161.6982  150.5793  125.2021 O   0  0  0  0  0  0  0  0  0  0  0  0
  160.6667  150.8297  124.3273 C   0  0  0  0  0  0  0  0  0  0  0  0
  163.3866  148.8411  125.2675 C   0  0  1  0  0  0  0  0  0  0  0  0
  164.0966  149.4286  126.4385 C   0  0  0  0  0  0  0  0  0  0  0  0
  172.8645  146.7948  127.5671 C   0  0  1  0  0  0  0  0  0  0  0  0
  173.4845  146.1530  128.5927 O   0  0  0  0  0  0  0  0  0  0  0  0
  174.7255  146.5674  128.9619 C   0  0  1  0  0  0  0  0  0  0  0  0
  174.6978  146.7354  130.3661 O   0  0  0  0  0  0  0  0  0  0  0  0
  175.7746  145.4763  128.7154 C   0  0  0  0  0  0  0  0  0  0  0  0
  175.5278  144.3927  129.5697 O   0  0  0  0  0  0  0  0  0  0  0  0
  175.2206  147.8437  128.3716 C   0  0  2  0  0  0  0  0  0  0  0  0
  174.9048  149.0422  129.2675 C   0  0  0  0  0  0  0  0  0  0  0  0
  174.8183  148.0858  126.9473 C   0  0  0  0  0  0  0  0  0  0  0  0
  173.8070  147.0679  126.4499 C   0  0  2  0  0  0  0  0  0  0  0  0
  173.0967  147.7455  125.2687 C   0  0  0  0  0  0  0  0  0  0  0  0
  1  2  1  1
  2  3  1  0
  3  4  1  6
  3  5  1  0
  5  6  1  6
  5  7  1  0
  7  8  1  6
  7  9  1  0
  9 10  1  0
 11 10  1  1
 11 12  1  0
 11 13  1  0
 13 14  1  6
 13 15  1  0
 15 16  1  0
 16 17  1  1
 16 18  1  0
 18 19  1  1
 18 20  1  0
 20 21  1  0
 21 22  1  6
 23 22  1  6
 23 24  1  0
 24 25  1  0
 25 26  1  0
 26 27  1  1
 26 28  1  0
 28 29  1  6
 28 30  1  0
 30 31  1  1
 30 32  1  0
 32 33  1  0
 32 34  2  0
 21 35  1  0
 35 36  1  0
 36 37  1  1
 37 38  1  0
 36 39  1  0
 39 40  1  1
  1 41  1  0
 41 42  1  1
 42 43  1  0
 43 44  1  1
 43 45  1  0
 45 46  1  0
 43 47  1  0
 47 48  1  1
 47 49  1  0
 49 50  1  0
 50 51  1  6
  6  1  1  0
 12  7  1  0
 19 13  1  0
 29 23  1  0
 50 41  1  0
 39 18  1  0
M  END
$$$$
