
     RDKit          3D

 51 56  0  0  0  0  0  0  0  0999 V2000
  130.7426  142.5014  137.4929 N   0  0  0  0  0  0  0  0  0  0  0  0
  130.8349  142.0365  136.1459 C   0  0  0  0  0  0  0  0  0  0  0  0
  130.4895  142.8556  135.0974 C   0  0  0  0  0  0  0  0  0  0  0  0
  130.5864  142.3824  133.8103 C   0  0  0  0  0  0  0  0  0  0  0  0
  131.0278  141.0837  133.5235 C   0  0  0  0  0  0  0  0  0  0  0  0
  131.1240  140.6290  132.1940 N   0  0  0  0  0  0  0  0  0  0  0  0
  130.4263  141.0959  131.0731 C   0  0  0  0  0  0  0  0  0  0  0  0
  130.3447  140.3135  129.9520 C   0  0  0  0  0  0  0  0  0  0  0  0
  129.6934  140.6978  128.7750 C   0  0  0  0  0  0  0  0  0  0  0  0
  129.0942  141.9357  128.7285 C   0  0  0  0  0  0  0  0  0  0  0  0
  128.4321  142.3844  127.5955 N   0  0  0  0  0  0  0  0  0  0  0  0
  128.9325  142.4864  126.2782 C   0  0  0  0  0  0  0  0  0  0  0  0
  128.3629  143.1680  125.2848 N   0  0  0  0  0  0  0  0  0  0  0  0
  128.9012  143.2131  124.0689 C   0  0  0  0  0  0  0  0  0  0  0  0
  128.1286  144.1252  122.7588 Cl  0  0  0  0  0  0  0  0  0  0  0  0
  130.0444  142.5771  123.7752 N   0  0  0  0  0  0  0  0  0  0  0  0
  130.6597  141.8641  124.7751 C   0  0  0  0  0  0  0  0  0  0  0  0
  131.8685  141.1883  124.4766 N   0  0  0  0  0  0  0  0  0  0  0  0
  132.8028  140.6489  125.3767 C   0  0  0  0  0  0  0  0  0  0  0  0
  133.2731  141.3232  126.4653 C   0  0  0  0  0  0  0  0  0  0  0  0
  134.2046  140.7545  127.3424 C   0  0  0  0  0  0  0  0  0  0  0  0
  134.6508  139.4843  127.0928 C   0  0  0  0  0  0  0  0  0  0  0  0
  134.1940  138.7911  126.0098 C   0  0  0  0  0  0  0  0  0  0  0  0
  133.2779  139.3564  125.1510 C   0  0  0  0  0  0  0  0  0  0  0  0
  132.6851  138.4923  123.7678 S   0  0  0  0  0  6  0  0  0  0  0  0
  131.0123  138.3344  123.9121 O   0  0  0  0  0  0  0  0  0  0  0  0
  133.3239  137.1305  123.6574 O   0  0  0  0  0  0  0  0  0  0  0  0
  132.9608  139.2380  122.4887 O   0  0  0  0  0  0  0  0  0  0  0  0
  130.0935  141.8439  125.9686 N   0  0  0  0  0  0  0  0  0  0  0  0
  129.1802  142.7397  129.8858 C   0  0  0  0  0  0  0  0  0  0  0  0
  129.8254  142.3363  131.0255 C   0  0  0  0  0  0  0  0  0  0  0  0
  128.4133  144.3076  129.8083 S   0  0  0  0  0  6  0  0  0  0  0  0
  126.7542  144.1044  129.7084 O   0  0  0  0  0  0  0  0  0  0  0  0
  128.9100  145.0412  128.5688 O   0  0  0  0  0  0  0  0  0  0  0  0
  128.7259  145.1448  131.0377 O   0  0  0  0  0  0  0  0  0  0  0  0
  131.3664  140.2941  134.5866 C   0  0  0  0  0  0  0  0  0  0  0  0
  131.2701  140.7682  135.9048 C   0  0  0  0  0  0  0  0  0  0  0  0
  131.6406  139.9636  137.0629 C   0  0  0  0  0  0  0  0  0  0  0  0
  131.5502  140.3934  138.2407 O   0  0  0  0  0  0  0  0  0  0  0  0
  132.1384  138.6058  136.8852 C   0  0  0  0  0  0  0  0  0  0  0  0
  132.4949  137.8237  137.9574 C   0  0  0  0  0  0  0  0  0  0  0  0
  132.9682  136.5258  137.7396 C   0  0  0  0  0  0  0  0  0  0  0  0
  133.0679  136.0560  136.4464 C   0  0  0  0  0  0  0  0  0  0  0  0
  132.7052  136.8530  135.3653 C   0  0  0  0  0  0  0  0  0  0  0  0
  132.2405  138.1297  135.5971 C   0  0  0  0  0  0  0  0  0  0  0  0
  131.8643  138.9478  134.4357 C   0  0  0  0  0  0  0  0  0  0  0  0
  131.9890  138.4514  133.3047 O   0  0  0  0  0  0  0  0  0  0  0  0
  129.9365  144.4767  135.4344 S   0  0  0  0  0  6  0  0  0  0  0  0
  128.3629  144.7135  134.9242 O   0  0  0  0  0  0  0  0  0  0  0  0
  130.0634  144.7567  136.9219 O   0  0  0  0  0  0  0  0  0  0  0  0
  130.7947  145.4923  134.7342 O   0  0  0  0  0  0  0  0  0  0  0  0
  1  2  1  0
  2  3  2  0
  3  4  1  0
  4  5  2  0
  5  6  1  0
  6  7  1  0
  7  8  2  0
  8  9  1  0
  9 10  2  0
 10 11  1  0
 11 12  1  0
 12 13  2  0
 13 14  1  0
 14 15  1  0
 14 16  2  0
 16 17  1  0
 17 18  1  0
 18 19  1  0
 19 20  2  0
 20 21  1  0
 21 22  2  0
 22 23  1  0
 23 24  2  0
 24 25  1  0
 25 26  1  0
 25 27  2  0
 25 28  2  0
 17 29  2  0
 10 30  1  0
 30 31  2  0
 30 32  1  0
 32 33  1  0
 32 34  2  0
 32 35  2  0
  5 36  1  0
 36 37  2  0
 37 38  1  0
 38 39  2  0
 38 40  1  0
 40 41  2  0
 41 42  1  0
 42 43  2  0
 43 44  1  0
 44 45  2  0
 45 46  1  0
 46 47  2  0
  3 48  1  0
 48 49  1  0
 48 50  2  0
 48 51  2  0
 37  2  1  0
 45 40  1  0
 31  7  1  0
 46 36  1  0
 29 12  1  0
 24 19  1  0
M  END
$$$$
