
     RDKit          3D

 51 56  0  0  0  0  0  0  0  0999 V2000
  191.6166  160.0975  120.4757 N   0  0  0  0  0  0  0  0  0  0  0  0
  191.8488  159.6264  119.1478 C   0  0  0  0  0  0  0  0  0  0  0  0
  191.3019  160.2782  118.0682 C   0  0  0  0  0  0  0  0  0  0  0  0
  191.5400  159.8026  116.8005 C   0  0  0  0  0  0  0  0  0  0  0  0
  192.3265  158.6670  116.5645 C   0  0  0  0  0  0  0  0  0  0  0  0
  192.5593  158.2075  115.2537 N   0  0  0  0  0  0  0  0  0  0  0  0
  192.3512  158.8955  114.0519 C   0  0  0  0  0  0  0  0  0  0  0  0
  193.2697  158.7870  113.0417 C   0  0  0  0  0  0  0  0  0  0  0  0
  193.1665  159.4518  111.8151 C   0  0  0  0  0  0  0  0  0  0  0  0
  192.0799  160.2677  111.5982 C   0  0  0  0  0  0  0  0  0  0  0  0
  191.9120  160.9592  110.4078 N   0  0  0  0  0  0  0  0  0  0  0  0
  191.4854  160.4526  109.1598 C   0  0  0  0  0  0  0  0  0  0  0  0
  192.0061  159.3974  108.5342 N   0  0  0  0  0  0  0  0  0  0  0  0
  191.5445  158.9845  107.3567 C   0  0  0  0  0  0  0  0  0  0  0  0
  192.2503  157.5781  106.5387 Cl  0  0  0  0  0  0  0  0  0  0  0  0
  190.5318  159.6050  106.7346 N   0  0  0  0  0  0  0  0  0  0  0  0
  189.9703  160.6970  107.3503 C   0  0  0  0  0  0  0  0  0  0  0  0
  188.8992  161.3605  106.7026 N   0  0  0  0  0  0  0  0  0  0  0  0
  188.1162  162.4199  107.1910 C   0  0  0  0  0  0  0  0  0  0  0  0
  187.8820  162.6312  108.5182 C   0  0  0  0  0  0  0  0  0  0  0  0
  187.0962  163.6983  108.9702 C   0  0  0  0  0  0  0  0  0  0  0  0
  186.5512  164.5494  108.0466 C   0  0  0  0  0  0  0  0  0  0  0  0
  186.7722  164.3573  106.7138 C   0  0  0  0  0  0  0  0  0  0  0  0
  187.5459  163.3057  106.2759 C   0  0  0  0  0  0  0  0  0  0  0  0
  187.8384  163.0432  104.5857 S   0  0  0  0  0  6  0  0  0  0  0  0
  187.2296  164.3603  103.7264 O   0  0  0  0  0  0  0  0  0  0  0  0
  187.1860  161.7700  104.1081 O   0  0  0  0  0  0  0  0  0  0  0  0
  189.3114  162.9491  104.2863 O   0  0  0  0  0  0  0  0  0  0  0  0
  190.4571  161.0756  108.5186 N   0  0  0  0  0  0  0  0  0  0  0  0
  191.1350  160.3774  112.6415 C   0  0  0  0  0  0  0  0  0  0  0  0
  191.2626  159.7135  113.8335 C   0  0  0  0  0  0  0  0  0  0  0  0
  189.7621  161.4174  112.3479 S   0  0  0  0  0  6  0  0  0  0  0  0
  188.8984  160.8320  111.0383 O   0  0  0  0  0  0  0  0  0  0  0  0
  190.2626  162.8227  112.0381 O   0  0  0  0  0  0  0  0  0  0  0  0
  188.8366  161.4757  113.5521 O   0  0  0  0  0  0  0  0  0  0  0  0
  192.8584  158.0422  117.6577 C   0  0  0  0  0  0  0  0  0  0  0  0
  192.6203  158.5200  118.9564 C   0  0  0  0  0  0  0  0  0  0  0  0
  193.1861  157.8931  120.1449 C   0  0  0  0  0  0  0  0  0  0  0  0
  192.9673  158.3248  121.3051 O   0  0  0  0  0  0  0  0  0  0  0  0
  194.0419  156.7204  120.0203 C   0  0  0  0  0  0  0  0  0  0  0  0
  194.5889  156.1081  121.1223 C   0  0  0  0  0  0  0  0  0  0  0  0
  195.4051  154.9848  120.9552 C   0  0  0  0  0  0  0  0  0  0  0  0
  195.6450  154.5130  119.6813 C   0  0  0  0  0  0  0  0  0  0  0  0
  195.0880  155.1376  118.5699 C   0  0  0  0  0  0  0  0  0  0  0  0
  194.2859  156.2436  118.7518 C   0  0  0  0  0  0  0  0  0  0  0  0
  193.7109  156.8817  117.5593 C   0  0  0  0  0  0  0  0  0  0  0  0
  193.9804  156.3973  116.4485 O   0  0  0  0  0  0  0  0  0  0  0  0
  190.3184  161.6943  118.3417 S   0  0  0  0  0  6  0  0  0  0  0  0
  189.7190  162.3184  116.9121 O   0  0  0  0  0  0  0  0  0  0  0  0
  189.1838  161.3480  119.2905 O   0  0  0  0  0  0  0  0  0  0  0  0
  191.1156  162.7800  119.0080 O   0  0  0  0  0  0  0  0  0  0  0  0
  1  2  1  0
  2  3  2  0
  3  4  1  0
  4  5  2  0
  5  6  1  0
  6  7  1  0
  7  8  2  0
  8  9  1  0
  9 10  2  0
 10 11  1  0
 11 12  1  0
 12 13  2  0
 13 14  1  0
 14 15  1  0
 14 16  2  0
 16 17  1  0
 17 18  1  0
 18 19  1  0
 19 20  2  0
 20 21  1  0
 21 22  2  0
 22 23  1  0
 23 24  2  0
 24 25  1  0
 25 26  1  0
 25 27  2  0
 25 28  2  0
 17 29  2  0
 10 30  1  0
 30 31  2  0
 30 32  1  0
 32 33  1  0
 32 34  2  0
 32 35  2  0
  5 36  1  0
 36 37  2  0
 37 38  1  0
 38 39  2  0
 38 40  1  0
 40 41  2  0
 41 42  1  0
 42 43  2  0
 43 44  1  0
 44 45  2  0
 45 46  1  0
 46 47  2  0
  3 48  1  0
 48 49  1  0
 48 50  2  0
 48 51  2  0
 37  2  1  0
 45 40  1  0
 31  7  1  0
 46 36  1  0
 29 12  1  0
 24 19  1  0
M  END
$$$$
