
     RDKit          3D

 51 56  0  0  0  0  0  0  0  0999 V2000
  171.6862  149.8629  133.7775 N   0  0  0  0  0  0  0  0  0  0  0  0
  170.7191  149.8735  132.7269 C   0  0  0  0  0  0  0  0  0  0  0  0
  171.0373  149.3958  131.4778 C   0  0  0  0  0  0  0  0  0  0  0  0
  170.0879  149.4190  130.4837 C   0  0  0  0  0  0  0  0  0  0  0  0
  168.7953  149.9165  130.6973 C   0  0  0  0  0  0  0  0  0  0  0  0
  167.8410  149.9205  129.6614 N   0  0  0  0  0  0  0  0  0  0  0  0
  168.0021  149.4779  128.3426 C   0  0  0  0  0  0  0  0  0  0  0  0
  168.9845  150.0243  127.5602 C   0  0  0  0  0  0  0  0  0  0  0  0
  169.2108  149.6692  126.2261 C   0  0  0  0  0  0  0  0  0  0  0  0
  168.4032  148.7135  125.6534 C   0  0  0  0  0  0  0  0  0  0  0  0
  168.5676  148.3127  124.3360 N   0  0  0  0  0  0  0  0  0  0  0  0
  169.5475  148.7397  123.4121 C   0  0  0  0  0  0  0  0  0  0  0  0
  170.2957  149.8363  123.5292 N   0  0  0  0  0  0  0  0  0  0  0  0
  171.1992  150.1679  122.6107 C   0  0  0  0  0  0  0  0  0  0  0  0
  172.1857  151.6315  122.7832 Cl  0  0  0  0  0  0  0  0  0  0  0  0
  171.4076  149.4193  121.5180 N   0  0  0  0  0  0  0  0  0  0  0  0
  170.6541  148.2812  121.3639 C   0  0  0  0  0  0  0  0  0  0  0  0
  170.8659  147.4821  120.2135 N   0  0  0  0  0  0  0  0  0  0  0  0
  170.2528  146.2618  119.8832 C   0  0  0  0  0  0  0  0  0  0  0  0
  168.9577  146.1603  119.4668 C   0  0  0  0  0  0  0  0  0  0  0  0
  168.3784  144.9268  119.1452 C   0  0  0  0  0  0  0  0  0  0  0  0
  169.1411  143.7950  119.2547 C   0  0  0  0  0  0  0  0  0  0  0  0
  170.4388  143.8729  119.6693 C   0  0  0  0  0  0  0  0  0  0  0  0
  171.0024  145.0892  119.9841 C   0  0  0  0  0  0  0  0  0  0  0  0
  172.6505  145.2099  120.5140 S   0  0  0  0  0  6  0  0  0  0  0  0
  173.3634  146.5322  119.7476 O   0  0  0  0  0  0  0  0  0  0  0  0
  173.4213  143.9529  120.1971 O   0  0  0  0  0  0  0  0  0  0  0  0
  172.7391  145.4454  121.9990 O   0  0  0  0  0  0  0  0  0  0  0  0
  169.7675  147.9866  122.2980 N   0  0  0  0  0  0  0  0  0  0  0  0
  167.3914  148.1524  126.4626 C   0  0  0  0  0  0  0  0  0  0  0  0
  167.1933  148.5202  127.7677 C   0  0  0  0  0  0  0  0  0  0  0  0
  166.3764  146.9405  125.7186 S   0  0  0  0  0  6  0  0  0  0  0  0
  165.2711  146.3812  126.8451 O   0  0  0  0  0  0  0  0  0  0  0  0
  167.2496  145.7843  125.2475 O   0  0  0  0  0  0  0  0  0  0  0  0
  165.6146  147.5020  124.5293 O   0  0  0  0  0  0  0  0  0  0  0  0
  168.5084  150.3821  131.9500 C   0  0  0  0  0  0  0  0  0  0  0  0
  169.4716  150.3631  132.9715 C   0  0  0  0  0  0  0  0  0  0  0  0
  169.1975  150.8320  134.3246 C   0  0  0  0  0  0  0  0  0  0  0  0
  170.0651  150.8142  135.2342 O   0  0  0  0  0  0  0  0  0  0  0  0
  167.8792  151.3470  134.6708 C   0  0  0  0  0  0  0  0  0  0  0  0
  167.5916  151.7962  135.9373 C   0  0  0  0  0  0  0  0  0  0  0  0
  166.3120  152.2819  136.2248 C   0  0  0  0  0  0  0  0  0  0  0  0
  165.3608  152.2998  135.2258 C   0  0  0  0  0  0  0  0  0  0  0  0
  165.6586  151.8436  133.9456 C   0  0  0  0  0  0  0  0  0  0  0  0
  166.9245  151.3681  133.6787 C   0  0  0  0  0  0  0  0  0  0  0  0
  167.2098  150.8938  132.3173 C   0  0  0  0  0  0  0  0  0  0  0  0
  166.2964  150.9394  131.4779 O   0  0  0  0  0  0  0  0  0  0  0  0
  172.6427  148.7726  131.1919 S   0  0  0  0  0  6  0  0  0  0  0  0
  173.8067  149.9608  131.3529 O   0  0  0  0  0  0  0  0  0  0  0  0
  172.9176  147.6230  132.1458 O   0  0  0  0  0  0  0  0  0  0  0  0
  172.7606  148.2120  129.8026 O   0  0  0  0  0  0  0  0  0  0  0  0
  1  2  1  0
  2  3  2  0
  3  4  1  0
  4  5  2  0
  5  6  1  0
  6  7  1  0
  7  8  2  0
  8  9  1  0
  9 10  2  0
 10 11  1  0
 11 12  1  0
 12 13  2  0
 13 14  1  0
 14 15  1  0
 14 16  2  0
 16 17  1  0
 17 18  1  0
 18 19  1  0
 19 20  2  0
 20 21  1  0
 21 22  2  0
 22 23  1  0
 23 24  2  0
 24 25  1  0
 25 26  1  0
 25 27  2  0
 25 28  2  0
 17 29  2  0
 10 30  1  0
 30 31  2  0
 30 32  1  0
 32 33  1  0
 32 34  2  0
 32 35  2  0
  5 36  1  0
 36 37  2  0
 37 38  1  0
 38 39  2  0
 38 40  1  0
 40 41  2  0
 41 42  1  0
 42 43  2  0
 43 44  1  0
 44 45  2  0
 45 46  1  0
 46 47  2  0
  3 48  1  0
 48 49  1  0
 48 50  2  0
 48 51  2  0
 37  2  1  0
 45 40  1  0
 31  7  1  0
 46 36  1  0
 29 12  1  0
 24 19  1  0
M  END
$$$$
