
     RDKit          3D

 51 56  0  0  0  0  0  0  0  0999 V2000
  129.2783  150.1283  134.6231 N   0  0  0  0  0  0  0  0  0  0  0  0
  128.8798  148.8936  135.2196 C   0  0  0  0  0  0  0  0  0  0  0  0
  128.6406  147.7856  134.4420 C   0  0  0  0  0  0  0  0  0  0  0  0
  128.2567  146.6096  135.0417 C   0  0  0  0  0  0  0  0  0  0  0  0
  128.0979  146.4963  136.4294 C   0  0  0  0  0  0  0  0  0  0  0  0
  127.7106  145.2760  137.0164 N   0  0  0  0  0  0  0  0  0  0  0  0
  127.1935  144.1413  136.3789 C   0  0  0  0  0  0  0  0  0  0  0  0
  126.2382  143.3878  137.0078 C   0  0  0  0  0  0  0  0  0  0  0  0
  125.6772  142.2256  136.4677 C   0  0  0  0  0  0  0  0  0  0  0  0
  126.1031  141.8034  135.2292 C   0  0  0  0  0  0  0  0  0  0  0  0
  125.5931  140.6602  134.6321 N   0  0  0  0  0  0  0  0  0  0  0  0
  126.1019  139.3437  134.6965 C   0  0  0  0  0  0  0  0  0  0  0  0
  125.4241  138.2367  134.3950 N   0  0  0  0  0  0  0  0  0  0  0  0
  125.9795  137.0309  134.4829 C   0  0  0  0  0  0  0  0  0  0  0  0
  125.0617  135.5684  134.0779 Cl  0  0  0  0  0  0  0  0  0  0  0  0
  127.2494  136.8619  134.8786 N   0  0  0  0  0  0  0  0  0  0  0  0
  127.9787  137.9813  135.1975 C   0  0  0  0  0  0  0  0  0  0  0  0
  129.3218  137.8151  135.6164 N   0  0  0  0  0  0  0  0  0  0  0  0
  130.2775  138.8126  135.8731 C   0  0  0  0  0  0  0  0  0  0  0  0
  130.1296  139.7636  136.8399 C   0  0  0  0  0  0  0  0  0  0  0  0
  131.1031  140.7435  137.0689 C   0  0  0  0  0  0  0  0  0  0  0  0
  132.2329  140.7396  136.2957 C   0  0  0  0  0  0  0  0  0  0  0  0
  132.4020  139.7978  135.3228 C   0  0  0  0  0  0  0  0  0  0  0  0
  131.4406  138.8369  135.1027 C   0  0  0  0  0  0  0  0  0  0  0  0
  131.6357  137.6309  133.8701 S   0  0  0  0  0  6  0  0  0  0  0  0
  130.2901  137.6808  132.8550 O   0  0  0  0  0  0  0  0  0  0  0  0
  131.7793  136.2540  134.4687 O   0  0  0  0  0  0  0  0  0  0  0  0
  132.8522  137.8965  133.0228 O   0  0  0  0  0  0  0  0  0  0  0  0
  127.3912  139.1604  135.0974 N   0  0  0  0  0  0  0  0  0  0  0  0
  127.0879  142.5824  134.5837 C   0  0  0  0  0  0  0  0  0  0  0  0
  127.6197  143.7173  135.1378 C   0  0  0  0  0  0  0  0  0  0  0  0
  127.6160  142.0311  133.0122 S   0  0  0  0  0  6  0  0  0  0  0  0
  128.6874  143.1458  132.3693 O   0  0  0  0  0  0  0  0  0  0  0  0
  126.4037  141.9070  132.0977 O   0  0  0  0  0  0  0  0  0  0  0  0
  128.3122  140.6827  133.0970 O   0  0  0  0  0  0  0  0  0  0  0  0
  128.3453  147.6143  137.1760 C   0  0  0  0  0  0  0  0  0  0  0  0
  128.7372  148.8200  136.5724 C   0  0  0  0  0  0  0  0  0  0  0  0
  129.0293  150.0273  137.3360 C   0  0  0  0  0  0  0  0  0  0  0  0
  129.3778  151.1043  136.7893 O   0  0  0  0  0  0  0  0  0  0  0  0
  128.9236  150.0211  138.7892 C   0  0  0  0  0  0  0  0  0  0  0  0
  129.1920  151.1434  139.5353 C   0  0  0  0  0  0  0  0  0  0  0  0
  129.0779  151.0915  140.9283 C   0  0  0  0  0  0  0  0  0  0  0  0
  128.6963  149.9085  141.5267 C   0  0  0  0  0  0  0  0  0  0  0  0
  128.4259  148.7758  140.7654 C   0  0  0  0  0  0  0  0  0  0  0  0
  128.5431  148.8438  139.3938 C   0  0  0  0  0  0  0  0  0  0  0  0
  128.2501  147.6318  138.6160 C   0  0  0  0  0  0  0  0  0  0  0  0
  127.9178  146.6066  139.2323 O   0  0  0  0  0  0  0  0  0  0  0  0
  128.8323  147.9070  132.7111 S   0  0  0  0  0  6  0  0  0  0  0  0
  127.7076  148.9409  132.0339 O   0  0  0  0  0  0  0  0  0  0  0  0
  130.2433  148.3673  132.3884 O   0  0  0  0  0  0  0  0  0  0  0  0
  128.6612  146.5647  132.0574 O   0  0  0  0  0  0  0  0  0  0  0  0
  1  2  1  0
  2  3  2  0
  3  4  1  0
  4  5  2  0
  5  6  1  0
  6  7  1  0
  7  8  2  0
  8  9  1  0
  9 10  2  0
 10 11  1  0
 11 12  1  0
 12 13  2  0
 13 14  1  0
 14 15  1  0
 14 16  2  0
 16 17  1  0
 17 18  1  0
 18 19  1  0
 19 20  2  0
 20 21  1  0
 21 22  2  0
 22 23  1  0
 23 24  2  0
 24 25  1  0
 25 26  1  0
 25 27  2  0
 25 28  2  0
 17 29  2  0
 10 30  1  0
 30 31  2  0
 30 32  1  0
 32 33  1  0
 32 34  2  0
 32 35  2  0
  5 36  1  0
 36 37  2  0
 37 38  1  0
 38 39  2  0
 38 40  1  0
 40 41  2  0
 41 42  1  0
 42 43  2  0
 43 44  1  0
 44 45  2  0
 45 46  1  0
 46 47  2  0
  3 48  1  0
 48 49  1  0
 48 50  2  0
 48 51  2  0
 37  2  1  0
 45 40  1  0
 31  7  1  0
 46 36  1  0
 29 12  1  0
 24 19  1  0
M  END
$$$$
