
     RDKit          3D

 51 56  0  0  0  0  0  0  0  0999 V2000
  117.0640  170.9127  139.8634 N   0  0  0  0  0  0  0  0  0  0  0  0
  117.4136  169.5517  140.1174 C   0  0  0  0  0  0  0  0  0  0  0  0
  117.8597  169.1634  141.3583 C   0  0  0  0  0  0  0  0  0  0  0  0
  118.1911  167.8470  141.5755 C   0  0  0  0  0  0  0  0  0  0  0  0
  118.0909  166.8761  140.5699 C   0  0  0  0  0  0  0  0  0  0  0  0
  118.4305  165.5331  140.8241 N   0  0  0  0  0  0  0  0  0  0  0  0
  118.7745  164.9507  142.0503 C   0  0  0  0  0  0  0  0  0  0  0  0
  118.4832  163.6320  142.2789 C   0  0  0  0  0  0  0  0  0  0  0  0
  118.7627  162.9649  143.4764 C   0  0  0  0  0  0  0  0  0  0  0  0
  119.3673  163.6658  144.4946 C   0  0  0  0  0  0  0  0  0  0  0  0
  119.6729  163.0709  145.7096 N   0  0  0  0  0  0  0  0  0  0  0  0
  118.7956  162.7648  146.7739 C   0  0  0  0  0  0  0  0  0  0  0  0
  119.1016  162.0280  147.8413 N   0  0  0  0  0  0  0  0  0  0  0  0
  118.2136  161.7863  148.8020 C   0  0  0  0  0  0  0  0  0  0  0  0
  118.6387  160.8029  150.2154 Cl  0  0  0  0  0  0  0  0  0  0  0  0
  116.9639  162.2692  148.7508 N   0  0  0  0  0  0  0  0  0  0  0  0
  116.6130  163.0333  147.6647 C   0  0  0  0  0  0  0  0  0  0  0  0
  115.2952  163.5494  147.5999 N   0  0  0  0  0  0  0  0  0  0  0  0
  114.7011  164.2751  146.5538 C   0  0  0  0  0  0  0  0  0  0  0  0
  115.2619  164.4060  145.3171 C   0  0  0  0  0  0  0  0  0  0  0  0
  114.6413  165.1371  144.2969 C   0  0  0  0  0  0  0  0  0  0  0  0
  113.4370  165.7344  144.5566 C   0  0  0  0  0  0  0  0  0  0  0  0
  112.8575  165.6168  145.7864 C   0  0  0  0  0  0  0  0  0  0  0  0
  113.4732  164.8964  146.7855 C   0  0  0  0  0  0  0  0  0  0  0  0
  112.7538  164.7353  148.3564 S   0  0  0  0  0  6  0  0  0  0  0  0
  112.5495  163.0940  148.6857 O   0  0  0  0  0  0  0  0  0  0  0  0
  111.4244  165.4444  148.4256 O   0  0  0  0  0  0  0  0  0  0  0  0
  113.6395  165.3061  149.4326 O   0  0  0  0  0  0  0  0  0  0  0  0
  117.5232  163.2504  146.7321 N   0  0  0  0  0  0  0  0  0  0  0  0
  119.6662  165.0249  144.2557 C   0  0  0  0  0  0  0  0  0  0  0  0
  119.3804  165.6522  143.0714 C   0  0  0  0  0  0  0  0  0  0  0  0
  120.4339  165.8983  145.5595 S   0  0  0  0  0  6  0  0  0  0  0  0
  120.6861  167.4845  145.0859 O   0  0  0  0  0  0  0  0  0  0  0  0
  121.7733  165.2436  145.8732 O   0  0  0  0  0  0  0  0  0  0  0  0
  119.5765  165.8977  146.8146 O   0  0  0  0  0  0  0  0  0  0  0  0
  117.6420  167.2922  139.3477 C   0  0  0  0  0  0  0  0  0  0  0  0
  117.3018  168.6347  139.1160 C   0  0  0  0  0  0  0  0  0  0  0  0
  116.8008  169.1127  137.8329 C   0  0  0  0  0  0  0  0  0  0  0  0
  116.4999  170.3164  137.6315 O   0  0  0  0  0  0  0  0  0  0  0  0
  116.6300  168.1876  136.7202 C   0  0  0  0  0  0  0  0  0  0  0  0
  116.1604  168.6090  135.4994 C   0  0  0  0  0  0  0  0  0  0  0  0
  116.0118  167.6857  134.4595 C   0  0  0  0  0  0  0  0  0  0  0  0
  116.3415  166.3649  134.6825 C   0  0  0  0  0  0  0  0  0  0  0  0
  116.8166  165.9449  135.9209 C   0  0  0  0  0  0  0  0  0  0  0  0
  116.9572  166.8674  136.9353 C   0  0  0  0  0  0  0  0  0  0  0  0
  117.4619  166.3946  138.2319 C   0  0  0  0  0  0  0  0  0  0  0  0
  117.7308  165.1885  138.3512 O   0  0  0  0  0  0  0  0  0  0  0  0
  117.9921  170.3585  142.6239 S   0  0  0  0  0  6  0  0  0  0  0  0
  116.4955  170.7853  143.2326 O   0  0  0  0  0  0  0  0  0  0  0  0
  118.8872  169.8278  143.7305 O   0  0  0  0  0  0  0  0  0  0  0  0
  118.6442  171.6117  142.1116 O   0  0  0  0  0  0  0  0  0  0  0  0
  1  2  1  0
  2  3  2  0
  3  4  1  0
  4  5  2  0
  5  6  1  0
  6  7  1  0
  7  8  2  0
  8  9  1  0
  9 10  2  0
 10 11  1  0
 11 12  1  0
 12 13  2  0
 13 14  1  0
 14 15  1  0
 14 16  2  0
 16 17  1  0
 17 18  1  0
 18 19  1  0
 19 20  2  0
 20 21  1  0
 21 22  2  0
 22 23  1  0
 23 24  2  0
 24 25  1  0
 25 26  1  0
 25 27  2  0
 25 28  2  0
 17 29  2  0
 10 30  1  0
 30 31  2  0
 30 32  1  0
 32 33  1  0
 32 34  2  0
 32 35  2  0
  5 36  1  0
 36 37  2  0
 37 38  1  0
 38 39  2  0
 38 40  1  0
 40 41  2  0
 41 42  1  0
 42 43  2  0
 43 44  1  0
 44 45  2  0
 45 46  1  0
 46 47  2  0
  3 48  1  0
 48 49  1  0
 48 50  2  0
 48 51  2  0
 37  2  1  0
 45 40  1  0
 31  7  1  0
 46 36  1  0
 29 12  1  0
 24 19  1  0
M  END
$$$$
