
     RDKit          3D

 51 56  0  0  0  0  0  0  0  0999 V2000
  117.5766  170.2802  149.7505 N   0  0  0  0  0  0  0  0  0  0  0  0
  117.8059  169.3753  148.6699 C   0  0  0  0  0  0  0  0  0  0  0  0
  116.8789  169.2365  147.6644 C   0  0  0  0  0  0  0  0  0  0  0  0
  117.1239  168.3570  146.6364 C   0  0  0  0  0  0  0  0  0  0  0  0
  118.2942  167.5886  146.5742 C   0  0  0  0  0  0  0  0  0  0  0  0
  118.5212  166.7011  145.5045 N   0  0  0  0  0  0  0  0  0  0  0  0
  117.5698  166.0828  144.6837 C   0  0  0  0  0  0  0  0  0  0  0  0
  117.8987  165.7530  143.3957 C   0  0  0  0  0  0  0  0  0  0  0  0
  117.0146  165.1565  142.4903 C   0  0  0  0  0  0  0  0  0  0  0  0
  115.7330  164.8792  142.9076 C   0  0  0  0  0  0  0  0  0  0  0  0
  114.8019  164.2904  142.0651 N   0  0  0  0  0  0  0  0  0  0  0  0
  114.4645  164.6632  140.7448 C   0  0  0  0  0  0  0  0  0  0  0  0
  113.8159  163.8989  139.8667 N   0  0  0  0  0  0  0  0  0  0  0  0
  113.5365  164.3275  138.6386 C   0  0  0  0  0  0  0  0  0  0  0  0
  112.6728  163.2958  137.4832 Cl  0  0  0  0  0  0  0  0  0  0  0  0
  113.8908  165.5496  138.2160 N   0  0  0  0  0  0  0  0  0  0  0  0
  114.5611  166.3654  139.0946 C   0  0  0  0  0  0  0  0  0  0  0  0
  114.9401  167.6593  138.6595 N   0  0  0  0  0  0  0  0  0  0  0  0
  115.4486  168.7171  139.4317 C   0  0  0  0  0  0  0  0  0  0  0  0
  114.7245  169.3630  140.3905 C   0  0  0  0  0  0  0  0  0  0  0  0
  115.2635  170.4140  141.1423 C   0  0  0  0  0  0  0  0  0  0  0  0
  116.5555  170.7979  140.9018 C   0  0  0  0  0  0  0  0  0  0  0  0
  117.2985  170.1660  139.9475 C   0  0  0  0  0  0  0  0  0  0  0  0
  116.7622  169.1330  139.2115 C   0  0  0  0  0  0  0  0  0  0  0  0
  117.6898  168.3169  137.9928 S   0  0  0  0  0  6  0  0  0  0  0  0
  117.0542  168.7131  136.4819 O   0  0  0  0  0  0  0  0  0  0  0  0
  117.6580  166.8219  138.1896 O   0  0  0  0  0  0  0  0  0  0  0  0
  119.1306  168.7552  138.0070 O   0  0  0  0  0  0  0  0  0  0  0  0
  114.8197  165.9030  140.3049 N   0  0  0  0  0  0  0  0  0  0  0  0
  115.3972  165.2205  144.2358 C   0  0  0  0  0  0  0  0  0  0  0  0
  116.2851  165.8045  145.1009 C   0  0  0  0  0  0  0  0  0  0  0  0
  113.7660  164.8606  144.7479 S   0  0  0  0  0  6  0  0  0  0  0  0
  113.7350  164.7006  146.4144 O   0  0  0  0  0  0  0  0  0  0  0  0
  113.3220  163.5529  144.1044 O   0  0  0  0  0  0  0  0  0  0  0  0
  112.7983  165.9625  144.3486 O   0  0  0  0  0  0  0  0  0  0  0  0
  119.1978  167.7505  147.5870 C   0  0  0  0  0  0  0  0  0  0  0  0
  118.9561  168.6457  148.6414 C   0  0  0  0  0  0  0  0  0  0  0  0
  119.9039  168.8606  149.7283 C   0  0  0  0  0  0  0  0  0  0  0  0
  119.6806  169.6622  150.6705 O   0  0  0  0  0  0  0  0  0  0  0  0
  121.1676  168.1358  149.7552 C   0  0  0  0  0  0  0  0  0  0  0  0
  122.0802  168.3171  150.7665 C   0  0  0  0  0  0  0  0  0  0  0  0
  123.2808  167.6001  150.7514 C   0  0  0  0  0  0  0  0  0  0  0  0
  123.5248  166.7215  149.7161 C   0  0  0  0  0  0  0  0  0  0  0  0
  122.5966  166.5426  148.6953 C   0  0  0  0  0  0  0  0  0  0  0  0
  121.4182  167.2569  148.7251 C   0  0  0  0  0  0  0  0  0  0  0  0
  120.4567  167.0463  147.6339 C   0  0  0  0  0  0  0  0  0  0  0  0
  120.7555  166.2411  146.7374 O   0  0  0  0  0  0  0  0  0  0  0  0
  115.4143  170.1845  147.7245 S   0  0  0  0  0  6  0  0  0  0  0  0
  114.4870  169.8085  149.0630 O   0  0  0  0  0  0  0  0  0  0  0  0
  115.7663  171.6621  147.7166 O   0  0  0  0  0  0  0  0  0  0  0  0
  114.5677  169.9409  146.5071 O   0  0  0  0  0  0  0  0  0  0  0  0
  1  2  1  0
  2  3  2  0
  3  4  1  0
  4  5  2  0
  5  6  1  0
  6  7  1  0
  7  8  2  0
  8  9  1  0
  9 10  2  0
 10 11  1  0
 11 12  1  0
 12 13  2  0
 13 14  1  0
 14 15  1  0
 14 16  2  0
 16 17  1  0
 17 18  1  0
 18 19  1  0
 19 20  2  0
 20 21  1  0
 21 22  2  0
 22 23  1  0
 23 24  2  0
 24 25  1  0
 25 26  1  0
 25 27  2  0
 25 28  2  0
 17 29  2  0
 10 30  1  0
 30 31  2  0
 30 32  1  0
 32 33  1  0
 32 34  2  0
 32 35  2  0
  5 36  1  0
 36 37  2  0
 37 38  1  0
 38 39  2  0
 38 40  1  0
 40 41  2  0
 41 42  1  0
 42 43  2  0
 43 44  1  0
 44 45  2  0
 45 46  1  0
 46 47  2  0
  3 48  1  0
 48 49  1  0
 48 50  2  0
 48 51  2  0
 37  2  1  0
 45 40  1  0
 31  7  1  0
 46 36  1  0
 29 12  1  0
 24 19  1  0
M  END
$$$$
