
     RDKit          3D

 51 56  0  0  0  0  0  0  0  0999 V2000
  156.8286  165.1131  148.3086 N   0  0  0  0  0  0  0  0  0  0  0  0
  155.8516  166.0434  147.8402 C   0  0  0  0  0  0  0  0  0  0  0  0
  156.2134  167.3235  147.4938 C   0  0  0  0  0  0  0  0  0  0  0  0
  155.2526  168.1995  147.0473 C   0  0  0  0  0  0  0  0  0  0  0  0
  153.9048  167.8337  146.9310 C   0  0  0  0  0  0  0  0  0  0  0  0
  152.9437  168.7508  146.4632 N   0  0  0  0  0  0  0  0  0  0  0  0
  153.0199  170.1492  146.4598 C   0  0  0  0  0  0  0  0  0  0  0  0
  152.2409  170.8718  147.3240 C   0  0  0  0  0  0  0  0  0  0  0  0
  152.2255  172.2695  147.3819 C   0  0  0  0  0  0  0  0  0  0  0  0
  153.0385  172.9727  146.5229 C   0  0  0  0  0  0  0  0  0  0  0  0
  153.0747  174.3591  146.5223 N   0  0  0  0  0  0  0  0  0  0  0  0
  151.9935  175.2580  146.6610 C   0  0  0  0  0  0  0  0  0  0  0  0
  151.9734  176.5172  146.2251 N   0  0  0  0  0  0  0  0  0  0  0  0
  150.9113  177.2999  146.3970 C   0  0  0  0  0  0  0  0  0  0  0  0
  150.9028  178.9735  145.8104 Cl  0  0  0  0  0  0  0  0  0  0  0  0
  149.8041  176.8670  147.0169 N   0  0  0  0  0  0  0  0  0  0  0  0
  149.7890  175.5738  147.4796 C   0  0  0  0  0  0  0  0  0  0  0  0
  148.6242  175.1051  148.1358 N   0  0  0  0  0  0  0  0  0  0  0  0
  148.1845  173.7780  148.2746 C   0  0  0  0  0  0  0  0  0  0  0  0
  147.5590  173.0858  147.2793 C   0  0  0  0  0  0  0  0  0  0  0  0
  147.1339  171.7630  147.4523 C   0  0  0  0  0  0  0  0  0  0  0  0
  147.3566  171.1544  148.6583 C   0  0  0  0  0  0  0  0  0  0  0  0
  147.9805  171.8275  149.6680 C   0  0  0  0  0  0  0  0  0  0  0  0
  148.3960  173.1284  149.4914 C   0  0  0  0  0  0  0  0  0  0  0  0
  149.1903  174.0025  150.7628 S   0  0  0  0  0  6  0  0  0  0  0  0
  150.4115  174.9454  150.0820 O   0  0  0  0  0  0  0  0  0  0  0  0
  149.7747  173.0652  151.7899 O   0  0  0  0  0  0  0  0  0  0  0  0
  148.2419  174.9331  151.4719 O   0  0  0  0  0  0  0  0  0  0  0  0
  150.8633  174.8287  147.2894 N   0  0  0  0  0  0  0  0  0  0  0  0
  153.8402  172.2248  145.6333 C   0  0  0  0  0  0  0  0  0  0  0  0
  153.8344  170.8549  145.5993 C   0  0  0  0  0  0  0  0  0  0  0  0
  154.8661  173.1347  144.5507 S   0  0  0  0  0  6  0  0  0  0  0  0
  153.9324  174.2375  143.7046 O   0  0  0  0  0  0  0  0  0  0  0  0
  155.5283  172.1737  143.5712 O   0  0  0  0  0  0  0  0  0  0  0  0
  155.9451  173.8923  145.3068 O   0  0  0  0  0  0  0  0  0  0  0  0
  153.5765  166.5537  147.2805 C   0  0  0  0  0  0  0  0  0  0  0  0
  154.5507  165.6520  147.7383 C   0  0  0  0  0  0  0  0  0  0  0  0
  154.2431  164.2737  148.1012 C   0  0  0  0  0  0  0  0  0  0  0  0
  155.1198  163.4720  148.5123 O   0  0  0  0  0  0  0  0  0  0  0  0
  152.8789  163.7731  147.9955 C   0  0  0  0  0  0  0  0  0  0  0  0
  152.5588  162.4793  148.3306 C   0  0  0  0  0  0  0  0  0  0  0  0
  151.2357  162.0416  148.2131 C   0  0  0  0  0  0  0  0  0  0  0  0
  150.2752  162.9225  147.7608 C   0  0  0  0  0  0  0  0  0  0  0  0
  150.6060  164.2310  147.4232 C   0  0  0  0  0  0  0  0  0  0  0  0
  151.9144  164.6466  147.5448 C   0  0  0  0  0  0  0  0  0  0  0  0
  152.2336  166.0344  147.1817 C   0  0  0  0  0  0  0  0  0  0  0  0
  151.3113  166.7610  146.7784 O   0  0  0  0  0  0  0  0  0  0  0  0
  157.8875  167.7984  147.6326 S   0  0  0  0  0  6  0  0  0  0  0  0
  158.8827  166.8451  146.6874 O   0  0  0  0  0  0  0  0  0  0  0  0
  158.0323  169.2621  147.2529 O   0  0  0  0  0  0  0  0  0  0  0  0
  158.3633  167.6768  149.0528 O   0  0  0  0  0  0  0  0  0  0  0  0
  1  2  1  0
  2  3  2  0
  3  4  1  0
  4  5  2  0
  5  6  1  0
  6  7  1  0
  7  8  2  0
  8  9  1  0
  9 10  2  0
 10 11  1  0
 11 12  1  0
 12 13  2  0
 13 14  1  0
 14 15  1  0
 14 16  2  0
 16 17  1  0
 17 18  1  0
 18 19  1  0
 19 20  2  0
 20 21  1  0
 21 22  2  0
 22 23  1  0
 23 24  2  0
 24 25  1  0
 25 26  1  0
 25 27  2  0
 25 28  2  0
 17 29  2  0
 10 30  1  0
 30 31  2  0
 30 32  1  0
 32 33  1  0
 32 34  2  0
 32 35  2  0
  5 36  1  0
 36 37  2  0
 37 38  1  0
 38 39  2  0
 38 40  1  0
 40 41  2  0
 41 42  1  0
 42 43  2  0
 43 44  1  0
 44 45  2  0
 45 46  1  0
 46 47  2  0
  3 48  1  0
 48 49  1  0
 48 50  2  0
 48 51  2  0
 37  2  1  0
 45 40  1  0
 31  7  1  0
 46 36  1  0
 29 12  1  0
 24 19  1  0
M  END
$$$$
