
     RDKit          3D

 51 56  0  0  0  0  0  0  0  0999 V2000
  131.3336  139.3919  128.1893 N   0  0  0  0  0  0  0  0  0  0  0  0
  131.0034  139.8954  129.4841 C   0  0  0  0  0  0  0  0  0  0  0  0
  131.1423  141.2324  129.7717 C   0  0  0  0  0  0  0  0  0  0  0  0
  130.8187  141.6906  131.0268 C   0  0  0  0  0  0  0  0  0  0  0  0
  130.3483  140.8379  132.0346 C   0  0  0  0  0  0  0  0  0  0  0  0
  130.0174  141.3374  133.3092 N   0  0  0  0  0  0  0  0  0  0  0  0
  128.9480  142.1732  133.6539 C   0  0  0  0  0  0  0  0  0  0  0  0
  128.4774  143.0813  132.7429 C   0  0  0  0  0  0  0  0  0  0  0  0
  127.4324  143.9758  132.9975 C   0  0  0  0  0  0  0  0  0  0  0  0
  126.8322  143.9514  134.2356 C   0  0  0  0  0  0  0  0  0  0  0  0
  125.7918  144.8093  134.5598 N   0  0  0  0  0  0  0  0  0  0  0  0
  125.8643  146.1839  134.8781 C   0  0  0  0  0  0  0  0  0  0  0  0
  124.8213  146.9807  135.1090 N   0  0  0  0  0  0  0  0  0  0  0  0
  124.9769  148.2687  135.4033 C   0  0  0  0  0  0  0  0  0  0  0  0
  123.5769  149.3141  135.7072 Cl  0  0  0  0  0  0  0  0  0  0  0  0
  126.1888  148.8365  135.4841 N   0  0  0  0  0  0  0  0  0  0  0  0
  127.2873  148.0452  135.2520 C   0  0  0  0  0  0  0  0  0  0  0  0
  128.5732  148.6342  135.3351 N   0  0  0  0  0  0  0  0  0  0  0  0
  129.8003  148.0950  134.9137 C   0  0  0  0  0  0  0  0  0  0  0  0
  130.2686  146.8817  135.3253 C   0  0  0  0  0  0  0  0  0  0  0  0
  131.4970  146.3744  134.8846 C   0  0  0  0  0  0  0  0  0  0  0  0
  132.2430  147.1244  134.0155 C   0  0  0  0  0  0  0  0  0  0  0  0
  131.7942  148.3409  133.5904 C   0  0  0  0  0  0  0  0  0  0  0  0
  130.5852  148.8340  134.0278 C   0  0  0  0  0  0  0  0  0  0  0  0
  129.9967  150.3790  133.5002 S   0  0  0  0  0  6  0  0  0  0  0  0
  130.9150  151.5832  134.2421 O   0  0  0  0  0  0  0  0  0  0  0  0
  128.5389  150.5566  133.8442 O   0  0  0  0  0  0  0  0  0  0  0  0
  130.1450  150.5493  132.0111 O   0  0  0  0  0  0  0  0  0  0  0  0
  127.0908  146.7713  134.9627 N   0  0  0  0  0  0  0  0  0  0  0  0
  127.3196  143.0142  135.1723 C   0  0  0  0  0  0  0  0  0  0  0  0
  128.3458  142.1496  134.8943 C   0  0  0  0  0  0  0  0  0  0  0  0
  126.5452  142.9976  136.7383 S   0  0  0  0  0  6  0  0  0  0  0  0
  125.7796  141.5248  136.9581 O   0  0  0  0  0  0  0  0  0  0  0  0
  125.5144  144.1183  136.7930 O   0  0  0  0  0  0  0  0  0  0  0  0
  127.5500  143.1940  137.8615 O   0  0  0  0  0  0  0  0  0  0  0  0
  130.2186  139.5146  131.7177 C   0  0  0  0  0  0  0  0  0  0  0  0
  130.5472  139.0372  130.4388 C   0  0  0  0  0  0  0  0  0  0  0  0
  130.4035  137.6373  130.0570 C   0  0  0  0  0  0  0  0  0  0  0  0
  130.7014  137.2159  128.9108 O   0  0  0  0  0  0  0  0  0  0  0  0
  129.8983  136.6627  131.0151 C   0  0  0  0  0  0  0  0  0  0  0  0
  129.7524  135.3369  130.6842 C   0  0  0  0  0  0  0  0  0  0  0  0
  129.2632  134.4364  131.6360 C   0  0  0  0  0  0  0  0  0  0  0  0
  128.9357  134.9007  132.8930 C   0  0  0  0  0  0  0  0  0  0  0  0
  129.0859  136.2443  133.2215 C   0  0  0  0  0  0  0  0  0  0  0  0
  129.5693  137.1186  132.2721 C   0  0  0  0  0  0  0  0  0  0  0  0
  129.7179  138.5315  132.6482 C   0  0  0  0  0  0  0  0  0  0  0  0
  129.3957  138.8681  133.7989 O   0  0  0  0  0  0  0  0  0  0  0  0
  131.7276  142.3105  128.5296 S   0  0  0  0  0  6  0  0  0  0  0  0
  130.8010  142.2187  127.1420 O   0  0  0  0  0  0  0  0  0  0  0  0
  131.7514  143.7326  129.0628 O   0  0  0  0  0  0  0  0  0  0  0  0
  133.1419  141.9732  128.1500 O   0  0  0  0  0  0  0  0  0  0  0  0
  1  2  1  0
  2  3  2  0
  3  4  1  0
  4  5  2  0
  5  6  1  0
  6  7  1  0
  7  8  2  0
  8  9  1  0
  9 10  2  0
 10 11  1  0
 11 12  1  0
 12 13  2  0
 13 14  1  0
 14 15  1  0
 14 16  2  0
 16 17  1  0
 17 18  1  0
 18 19  1  0
 19 20  2  0
 20 21  1  0
 21 22  2  0
 22 23  1  0
 23 24  2  0
 24 25  1  0
 25 26  1  0
 25 27  2  0
 25 28  2  0
 17 29  2  0
 10 30  1  0
 30 31  2  0
 30 32  1  0
 32 33  1  0
 32 34  2  0
 32 35  2  0
  5 36  1  0
 36 37  2  0
 37 38  1  0
 38 39  2  0
 38 40  1  0
 40 41  2  0
 41 42  1  0
 42 43  2  0
 43 44  1  0
 44 45  2  0
 45 46  1  0
 46 47  2  0
  3 48  1  0
 48 49  1  0
 48 50  2  0
 48 51  2  0
 37  2  1  0
 45 40  1  0
 31  7  1  0
 46 36  1  0
 29 12  1  0
 24 19  1  0
M  END
$$$$
