
     RDKit          3D

 51 56  0  0  0  0  0  0  0  0999 V2000
  177.0623  158.5768  133.1829 N   0  0  0  0  0  0  0  0  0  0  0  0
  178.0765  158.8507  134.1501 C   0  0  0  0  0  0  0  0  0  0  0  0
  179.4052  158.8206  133.7988 C   0  0  0  0  0  0  0  0  0  0  0  0
  180.3615  159.0868  134.7500 C   0  0  0  0  0  0  0  0  0  0  0  0
  180.0301  159.3903  136.0773 C   0  0  0  0  0  0  0  0  0  0  0  0
  181.0316  159.6662  137.0284 N   0  0  0  0  0  0  0  0  0  0  0  0
  182.4123  159.4665  136.9054 C   0  0  0  0  0  0  0  0  0  0  0  0
  182.8806  158.3988  136.1867 C   0  0  0  0  0  0  0  0  0  0  0  0
  184.2374  158.0986  136.0250 C   0  0  0  0  0  0  0  0  0  0  0  0
  185.1683  158.9190  136.6200 C   0  0  0  0  0  0  0  0  0  0  0  0
  186.5300  158.6826  136.5042 N   0  0  0  0  0  0  0  0  0  0  0  0
  187.1752  157.6263  135.8232 C   0  0  0  0  0  0  0  0  0  0  0  0
  188.4466  157.2622  135.9871 N   0  0  0  0  0  0  0  0  0  0  0  0
  188.9786  156.2524  135.3036 C   0  0  0  0  0  0  0  0  0  0  0  0
  190.6730  155.7823  135.5348 Cl  0  0  0  0  0  0  0  0  0  0  0  0
  188.2674  155.5456  134.4135 N   0  0  0  0  0  0  0  0  0  0  0  0
  186.9529  155.8928  134.2184 C   0  0  0  0  0  0  0  0  0  0  0  0
  186.1913  155.1527  133.2807 N   0  0  0  0  0  0  0  0  0  0  0  0
  184.8076  155.2183  133.0460 C   0  0  0  0  0  0  0  0  0  0  0  0
  183.9541  155.9764  133.7929 C   0  0  0  0  0  0  0  0  0  0  0  0
  182.5793  156.0185  133.5307 C   0  0  0  0  0  0  0  0  0  0  0  0
  182.0860  155.2743  132.4926 C   0  0  0  0  0  0  0  0  0  0  0  0
  182.9213  154.5088  131.7322 C   0  0  0  0  0  0  0  0  0  0  0  0
  184.2724  154.4718  131.9956 C   0  0  0  0  0  0  0  0  0  0  0  0
  185.3516  153.5041  131.0413 S   0  0  0  0  0  6  0  0  0  0  0  0
  185.0690  151.8798  131.3959 O   0  0  0  0  0  0  0  0  0  0  0  0
  186.7922  153.8503  131.3231 O   0  0  0  0  0  0  0  0  0  0  0  0
  185.1095  153.6944  129.5670 O   0  0  0  0  0  0  0  0  0  0  0  0
  186.4619  156.9014  134.9163 N   0  0  0  0  0  0  0  0  0  0  0  0
  184.6822  160.0186  137.3602 C   0  0  0  0  0  0  0  0  0  0  0  0
  183.3460  160.2880  137.5013 C   0  0  0  0  0  0  0  0  0  0  0  0
  185.8787  161.0491  138.1079 S   0  0  0  0  0  6  0  0  0  0  0  0
  187.1065  161.3527  137.0107 O   0  0  0  0  0  0  0  0  0  0  0  0
  186.4523  160.3380  139.3272 O   0  0  0  0  0  0  0  0  0  0  0  0
  185.2800  162.3760  138.5448 O   0  0  0  0  0  0  0  0  0  0  0  0
  178.7009  159.4151  136.3954 C   0  0  0  0  0  0  0  0  0  0  0  0
  177.7170  159.1439  135.4310 C   0  0  0  0  0  0  0  0  0  0  0  0
  176.2897  159.1802  135.7267 C   0  0  0  0  0  0  0  0  0  0  0  0
  175.4139  158.9344  134.8591 O   0  0  0  0  0  0  0  0  0  0  0  0
  175.8254  159.5103  137.0678 C   0  0  0  0  0  0  0  0  0  0  0  0
  174.4869  159.5519  137.3763 C   0  0  0  0  0  0  0  0  0  0  0  0
  174.0868  159.8739  138.6771 C   0  0  0  0  0  0  0  0  0  0  0  0
  175.0492  160.1443  139.6277 C   0  0  0  0  0  0  0  0  0  0  0  0
  176.4027  160.1004  139.3087 C   0  0  0  0  0  0  0  0  0  0  0  0
  176.7803  159.7814  138.0222 C   0  0  0  0  0  0  0  0  0  0  0  0
  178.2170  159.7420  137.7152 C   0  0  0  0  0  0  0  0  0  0  0  0
  179.0180  160.0032  138.6270 O   0  0  0  0  0  0  0  0  0  0  0  0
  179.8381  158.4437  132.1502 S   0  0  0  0  0  6  0  0  0  0  0  0
  179.4978  159.7105  131.1148 O   0  0  0  0  0  0  0  0  0  0  0  0
  181.3115  158.0804  132.0834 O   0  0  0  0  0  0  0  0  0  0  0  0
  179.0798  157.2433  131.6579 O   0  0  0  0  0  0  0  0  0  0  0  0
  1  2  1  0
  2  3  2  0
  3  4  1  0
  4  5  2  0
  5  6  1  0
  6  7  1  0
  7  8  2  0
  8  9  1  0
  9 10  2  0
 10 11  1  0
 11 12  1  0
 12 13  2  0
 13 14  1  0
 14 15  1  0
 14 16  2  0
 16 17  1  0
 17 18  1  0
 18 19  1  0
 19 20  2  0
 20 21  1  0
 21 22  2  0
 22 23  1  0
 23 24  2  0
 24 25  1  0
 25 26  1  0
 25 27  2  0
 25 28  2  0
 17 29  2  0
 10 30  1  0
 30 31  2  0
 30 32  1  0
 32 33  1  0
 32 34  2  0
 32 35  2  0
  5 36  1  0
 36 37  2  0
 37 38  1  0
 38 39  2  0
 38 40  1  0
 40 41  2  0
 41 42  1  0
 42 43  2  0
 43 44  1  0
 44 45  2  0
 45 46  1  0
 46 47  2  0
  3 48  1  0
 48 49  1  0
 48 50  2  0
 48 51  2  0
 37  2  1  0
 45 40  1  0
 31  7  1  0
 46 36  1  0
 29 12  1  0
 24 19  1  0
M  END
$$$$
