
     RDKit          3D

 51 56  0  0  0  0  0  0  0  0999 V2000
  205.6080  126.4297  130.0827 N   0  0  0  0  0  0  0  0  0  0  0  0
  206.2299  127.2191  131.0972 C   0  0  0  0  0  0  0  0  0  0  0  0
  206.5656  126.6635  132.3090 C   0  0  0  0  0  0  0  0  0  0  0  0
  207.1620  127.4463  133.2689 C   0  0  0  0  0  0  0  0  0  0  0  0
  207.4434  128.8028  133.0572 C   0  0  0  0  0  0  0  0  0  0  0  0
  208.0623  129.5782  134.0569 N   0  0  0  0  0  0  0  0  0  0  0  0
  207.6237  130.7935  134.5969 C   0  0  0  0  0  0  0  0  0  0  0  0
  206.3379  131.2090  134.3731 C   0  0  0  0  0  0  0  0  0  0  0  0
  205.8115  132.4155  134.8469 C   0  0  0  0  0  0  0  0  0  0  0  0
  206.6258  133.2443  135.5842 C   0  0  0  0  0  0  0  0  0  0  0  0
  206.1733  134.4559  136.0848 N   0  0  0  0  0  0  0  0  0  0  0  0
  206.2649  135.7331  135.4877 C   0  0  0  0  0  0  0  0  0  0  0  0
  205.4803  136.7743  135.7635 N   0  0  0  0  0  0  0  0  0  0  0  0
  205.6337  137.9467  135.1536 C   0  0  0  0  0  0  0  0  0  0  0  0
  204.5796  139.3214  135.5334 Cl  0  0  0  0  0  0  0  0  0  0  0  0
  206.5842  138.1463  134.2293 N   0  0  0  0  0  0  0  0  0  0  0  0
  207.4119  137.0948  133.9193 C   0  0  0  0  0  0  0  0  0  0  0  0
  208.4203  137.2941  132.9444 N   0  0  0  0  0  0  0  0  0  0  0  0
  209.3725  136.3696  132.4836 C   0  0  0  0  0  0  0  0  0  0  0  0
  210.3586  135.8512  133.2709 C   0  0  0  0  0  0  0  0  0  0  0  0
  211.2916  134.9307  132.7783 C   0  0  0  0  0  0  0  0  0  0  0  0
  211.2042  134.5452  131.4674 C   0  0  0  0  0  0  0  0  0  0  0  0
  210.2260  135.0508  130.6615 C   0  0  0  0  0  0  0  0  0  0  0  0
  209.3116  135.9559  131.1523 C   0  0  0  0  0  0  0  0  0  0  0  0
  208.0606  136.6116  130.1440 S   0  0  0  0  0  6  0  0  0  0  0  0
  208.0177  138.2831  130.3633 O   0  0  0  0  0  0  0  0  0  0  0  0
  206.7173  136.0130  130.4785 O   0  0  0  0  0  0  0  0  0  0  0  0
  208.3323  136.3532  128.6853 O   0  0  0  0  0  0  0  0  0  0  0  0
  207.2272  135.9471  134.5470 N   0  0  0  0  0  0  0  0  0  0  0  0
  207.9505  132.8131  135.8130 C   0  0  0  0  0  0  0  0  0  0  0  0
  208.4389  131.6249  135.3359 C   0  0  0  0  0  0  0  0  0  0  0  0
  208.9693  133.8781  136.7512 S   0  0  0  0  0  6  0  0  0  0  0  0
  208.2171  134.2167  138.2084 O   0  0  0  0  0  0  0  0  0  0  0  0
  209.1793  135.1727  135.9760 O   0  0  0  0  0  0  0  0  0  0  0  0
  210.3223  133.2483  137.0390 O   0  0  0  0  0  0  0  0  0  0  0  0
  207.1003  129.3257  131.8418 C   0  0  0  0  0  0  0  0  0  0  0  0
  206.4901  128.5343  130.8554 C   0  0  0  0  0  0  0  0  0  0  0  0
  206.1279  129.0504  129.5408 C   0  0  0  0  0  0  0  0  0  0  0  0
  205.5799  128.3370  128.6627 O   0  0  0  0  0  0  0  0  0  0  0  0
  206.3967  130.4408  129.1977 C   0  0  0  0  0  0  0  0  0  0  0  0
  206.0663  130.9554  127.9671 C   0  0  0  0  0  0  0  0  0  0  0  0
  206.3434  132.2961  127.6811 C   0  0  0  0  0  0  0  0  0  0  0  0
  206.9458  133.0773  128.6454 C   0  0  0  0  0  0  0  0  0  0  0  0
  207.2776  132.5500  129.8894 C   0  0  0  0  0  0  0  0  0  0  0  0
  206.9977  131.2269  130.1553 C   0  0  0  0  0  0  0  0  0  0  0  0
  207.3589  130.6982  131.4781 C   0  0  0  0  0  0  0  0  0  0  0  0
  207.9028  131.4667  132.2873 O   0  0  0  0  0  0  0  0  0  0  0  0
  206.2223  124.9755  132.5921 S   0  0  0  0  0  6  0  0  0  0  0  0
  204.5878  124.7030  132.8085 O   0  0  0  0  0  0  0  0  0  0  0  0
  206.7527  124.1491  131.4332 O   0  0  0  0  0  0  0  0  0  0  0  0
  206.9279  124.4843  133.8246 O   0  0  0  0  0  0  0  0  0  0  0  0
  1  2  1  0
  2  3  2  0
  3  4  1  0
  4  5  2  0
  5  6  1  0
  6  7  1  0
  7  8  2  0
  8  9  1  0
  9 10  2  0
 10 11  1  0
 11 12  1  0
 12 13  2  0
 13 14  1  0
 14 15  1  0
 14 16  2  0
 16 17  1  0
 17 18  1  0
 18 19  1  0
 19 20  2  0
 20 21  1  0
 21 22  2  0
 22 23  1  0
 23 24  2  0
 24 25  1  0
 25 26  1  0
 25 27  2  0
 25 28  2  0
 17 29  2  0
 10 30  1  0
 30 31  2  0
 30 32  1  0
 32 33  1  0
 32 34  2  0
 32 35  2  0
  5 36  1  0
 36 37  2  0
 37 38  1  0
 38 39  2  0
 38 40  1  0
 40 41  2  0
 41 42  1  0
 42 43  2  0
 43 44  1  0
 44 45  2  0
 45 46  1  0
 46 47  2  0
  3 48  1  0
 48 49  1  0
 48 50  2  0
 48 51  2  0
 37  2  1  0
 45 40  1  0
 31  7  1  0
 46 36  1  0
 29 12  1  0
 24 19  1  0
M  END
$$$$
