
     RDKit          3D

 51 56  0  0  0  0  0  0  0  0999 V2000
  188.2440  160.0727  133.9471 N   0  0  0  0  0  0  0  0  0  0  0  0
  187.4838  160.3013  135.1342 C   0  0  0  0  0  0  0  0  0  0  0  0
  186.2805  159.6656  135.3281 C   0  0  0  0  0  0  0  0  0  0  0  0
  185.5681  159.9047  136.4793 C   0  0  0  0  0  0  0  0  0  0  0  0
  186.0262  160.7810  137.4724 C   0  0  0  0  0  0  0  0  0  0  0  0
  185.2778  161.0005  138.6452 N   0  0  0  0  0  0  0  0  0  0  0  0
  184.4589  160.0906  139.3253 C   0  0  0  0  0  0  0  0  0  0  0  0
  183.5350  159.3587  138.6276 C   0  0  0  0  0  0  0  0  0  0  0  0
  182.6552  158.4438  139.2158 C   0  0  0  0  0  0  0  0  0  0  0  0
  182.7117  158.2591  140.5783 C   0  0  0  0  0  0  0  0  0  0  0  0
  181.8699  157.3705  141.2303 N   0  0  0  0  0  0  0  0  0  0  0  0
  180.4575  157.3753  141.2646 C   0  0  0  0  0  0  0  0  0  0  0  0
  179.7003  156.6228  142.0624 N   0  0  0  0  0  0  0  0  0  0  0  0
  178.3719  156.6882  142.0315 C   0  0  0  0  0  0  0  0  0  0  0  0
  177.3804  155.6786  143.1006 Cl  0  0  0  0  0  0  0  0  0  0  0  0
  177.7215  157.5130  141.1982 N   0  0  0  0  0  0  0  0  0  0  0  0
  178.4699  158.3039  140.3610 C   0  0  0  0  0  0  0  0  0  0  0  0
  177.7935  159.1798  139.4764 N   0  0  0  0  0  0  0  0  0  0  0  0
  178.3528  160.0566  138.5317 C   0  0  0  0  0  0  0  0  0  0  0  0
  179.5829  159.8720  137.9716 C   0  0  0  0  0  0  0  0  0  0  0  0
  180.1098  160.7665  137.0320 C   0  0  0  0  0  0  0  0  0  0  0  0
  179.3619  161.8550  136.6707 C   0  0  0  0  0  0  0  0  0  0  0  0
  178.1288  162.0595  137.2181 C   0  0  0  0  0  0  0  0  0  0  0  0
  177.6166  161.1759  138.1418 C   0  0  0  0  0  0  0  0  0  0  0  0
  176.0512  161.4182  138.8505 S   0  0  0  0  0  6  0  0  0  0  0  0
  175.5148  162.9652  138.4471 O   0  0  0  0  0  0  0  0  0  0  0  0
  176.0989  161.2637  140.3501 O   0  0  0  0  0  0  0  0  0  0  0  0
  175.0428  160.4355  138.3158 O   0  0  0  0  0  0  0  0  0  0  0  0
  179.7862  158.2095  140.4220 N   0  0  0  0  0  0  0  0  0  0  0  0
  183.6650  159.0152  141.2944 C   0  0  0  0  0  0  0  0  0  0  0  0
  184.5147  159.9048  140.6906 C   0  0  0  0  0  0  0  0  0  0  0  0
  183.7224  158.7671  143.0229 S   0  0  0  0  0  6  0  0  0  0  0  0
  182.2534  159.2124  143.6918 O   0  0  0  0  0  0  0  0  0  0  0  0
  184.8305  159.6318  143.6109 O   0  0  0  0  0  0  0  0  0  0  0  0
  183.9923  157.3124  143.3708 O   0  0  0  0  0  0  0  0  0  0  0  0
  187.2268  161.3960  137.2520 C   0  0  0  0  0  0  0  0  0  0  0  0
  187.9613  161.1587  136.0791 C   0  0  0  0  0  0  0  0  0  0  0  0
  189.2541  161.7799  135.8172 C   0  0  0  0  0  0  0  0  0  0  0  0
  189.9058  161.5647  134.7640 O   0  0  0  0  0  0  0  0  0  0  0  0
  189.8429  162.6896  136.7913 C   0  0  0  0  0  0  0  0  0  0  0  0
  191.0594  163.2902  136.5720 C   0  0  0  0  0  0  0  0  0  0  0  0
  191.5865  164.1564  137.5351 C   0  0  0  0  0  0  0  0  0  0  0  0
  190.8706  164.3907  138.6908 C   0  0  0  0  0  0  0  0  0  0  0  0
  189.6395  163.7795  138.9065 C   0  0  0  0  0  0  0  0  0  0  0  0
  189.1340  162.9285  137.9474 C   0  0  0  0  0  0  0  0  0  0  0  0
  187.8312  162.2982  138.2027 C   0  0  0  0  0  0  0  0  0  0  0  0
  187.2541  162.5585  139.2706 O   0  0  0  0  0  0  0  0  0  0  0  0
  185.6926  158.5708  134.1021 S   0  0  0  0  0  6  0  0  0  0  0  0
  186.8224  157.3990  133.7239 O   0  0  0  0  0  0  0  0  0  0  0  0
  184.3972  157.9318  134.5721 O   0  0  0  0  0  0  0  0  0  0  0  0
  185.3685  159.3098  132.8344 O   0  0  0  0  0  0  0  0  0  0  0  0
  1  2  1  0
  2  3  2  0
  3  4  1  0
  4  5  2  0
  5  6  1  0
  6  7  1  0
  7  8  2  0
  8  9  1  0
  9 10  2  0
 10 11  1  0
 11 12  1  0
 12 13  2  0
 13 14  1  0
 14 15  1  0
 14 16  2  0
 16 17  1  0
 17 18  1  0
 18 19  1  0
 19 20  2  0
 20 21  1  0
 21 22  2  0
 22 23  1  0
 23 24  2  0
 24 25  1  0
 25 26  1  0
 25 27  2  0
 25 28  2  0
 17 29  2  0
 10 30  1  0
 30 31  2  0
 30 32  1  0
 32 33  1  0
 32 34  2  0
 32 35  2  0
  5 36  1  0
 36 37  2  0
 37 38  1  0
 38 39  2  0
 38 40  1  0
 40 41  2  0
 41 42  1  0
 42 43  2  0
 43 44  1  0
 44 45  2  0
 45 46  1  0
 46 47  2  0
  3 48  1  0
 48 49  1  0
 48 50  2  0
 48 51  2  0
 37  2  1  0
 45 40  1  0
 31  7  1  0
 46 36  1  0
 29 12  1  0
 24 19  1  0
M  END
$$$$
