
     RDKit          3D

 51 56  0  0  0  0  0  0  0  0999 V2000
  201.7012  141.8650  129.1045 N   0  0  0  0  0  0  0  0  0  0  0  0
  202.0883  140.5375  129.4611 C   0  0  0  0  0  0  0  0  0  0  0  0
  202.0819  140.1358  130.7757 C   0  0  0  0  0  0  0  0  0  0  0  0
  202.4607  138.8525  131.0916 C   0  0  0  0  0  0  0  0  0  0  0  0
  202.8575  137.9293  130.1148 C   0  0  0  0  0  0  0  0  0  0  0  0
  203.2332  136.6186  130.4679 N   0  0  0  0  0  0  0  0  0  0  0  0
  203.2499  136.0436  131.7447 C   0  0  0  0  0  0  0  0  0  0  0  0
  203.6211  134.7335  131.8924 C   0  0  0  0  0  0  0  0  0  0  0  0
  203.6472  134.0609  133.1188 C   0  0  0  0  0  0  0  0  0  0  0  0
  203.2795  134.7469  134.2536 C   0  0  0  0  0  0  0  0  0  0  0  0
  203.2796  134.1450  135.5030 N   0  0  0  0  0  0  0  0  0  0  0  0
  204.3403  133.4639  136.1410 C   0  0  0  0  0  0  0  0  0  0  0  0
  204.2787  132.8861  137.3402 N   0  0  0  0  0  0  0  0  0  0  0  0
  205.3275  132.2630  137.8710 C   0  0  0  0  0  0  0  0  0  0  0  0
  205.2270  131.5000  139.4689 Cl  0  0  0  0  0  0  0  0  0  0  0  0
  206.5027  132.1811  137.2308 N   0  0  0  0  0  0  0  0  0  0  0  0
  206.6030  132.7655  135.9918 C   0  0  0  0  0  0  0  0  0  0  0  0
  207.8398  132.6849  135.3056 N   0  0  0  0  0  0  0  0  0  0  0  0
  208.1473  133.1575  134.0187 C   0  0  0  0  0  0  0  0  0  0  0  0
  207.5897  132.6535  132.8802 C   0  0  0  0  0  0  0  0  0  0  0  0
  207.9192  133.1490  131.6129 C   0  0  0  0  0  0  0  0  0  0  0  0
  208.8280  134.1690  131.5228 C   0  0  0  0  0  0  0  0  0  0  0  0
  209.3984  134.6886  132.6483 C   0  0  0  0  0  0  0  0  0  0  0  0
  209.0699  134.1965  133.8918 C   0  0  0  0  0  0  0  0  0  0  0  0
  209.7844  134.8425  135.3354 S   0  0  0  0  0  6  0  0  0  0  0  0
  211.3979  134.3560  135.3978 O   0  0  0  0  0  0  0  0  0  0  0  0
  209.0549  134.3683  136.5673 O   0  0  0  0  0  0  0  0  0  0  0  0
  209.7653  136.3485  135.3370 O   0  0  0  0  0  0  0  0  0  0  0  0
  205.5392  133.3747  135.4995 N   0  0  0  0  0  0  0  0  0  0  0  0
  202.8974  136.0972  134.0978 C   0  0  0  0  0  0  0  0  0  0  0  0
  202.8817  136.7302  132.8826 C   0  0  0  0  0  0  0  0  0  0  0  0
  202.4344  136.9520  135.5494 S   0  0  0  0  0  6  0  0  0  0  0  0
  203.6891  136.8779  136.6558 O   0  0  0  0  0  0  0  0  0  0  0  0
  201.1966  136.2892  136.1411 O   0  0  0  0  0  0  0  0  0  0  0  0
  202.1253  138.4125  135.2642 O   0  0  0  0  0  0  0  0  0  0  0  0
  202.8511  138.3575  128.8167 C   0  0  0  0  0  0  0  0  0  0  0  0
  202.4665  139.6664  128.4843 C   0  0  0  0  0  0  0  0  0  0  0  0
  202.4275  140.1536  127.1107 C   0  0  0  0  0  0  0  0  0  0  0  0
  202.0841  141.3274  126.8199 O   0  0  0  0  0  0  0  0  0  0  0  0
  202.7938  139.2738  126.0084 C   0  0  0  0  0  0  0  0  0  0  0  0
  202.7671  139.7050  124.7038 C   0  0  0  0  0  0  0  0  0  0  0  0
  203.1267  138.8257  123.6774 C   0  0  0  0  0  0  0  0  0  0  0  0
  203.5023  137.5376  123.9981 C   0  0  0  0  0  0  0  0  0  0  0  0
  203.5272  137.1075  125.3210 C   0  0  0  0  0  0  0  0  0  0  0  0
  203.1700  137.9865  126.3207 C   0  0  0  0  0  0  0  0  0  0  0  0
  203.2068  137.5042  127.7084 C   0  0  0  0  0  0  0  0  0  0  0  0
  203.5516  136.3289  127.9108 O   0  0  0  0  0  0  0  0  0  0  0  0
  201.5915  141.2717  132.0071 S   0  0  0  0  0  6  0  0  0  0  0  0
  202.1961  140.8573  133.5089 O   0  0  0  0  0  0  0  0  0  0  0  0
  202.0425  142.6686  131.6167 O   0  0  0  0  0  0  0  0  0  0  0  0
  200.0941  141.3235  132.1230 O   0  0  0  0  0  0  0  0  0  0  0  0
  1  2  1  0
  2  3  2  0
  3  4  1  0
  4  5  2  0
  5  6  1  0
  6  7  1  0
  7  8  2  0
  8  9  1  0
  9 10  2  0
 10 11  1  0
 11 12  1  0
 12 13  2  0
 13 14  1  0
 14 15  1  0
 14 16  2  0
 16 17  1  0
 17 18  1  0
 18 19  1  0
 19 20  2  0
 20 21  1  0
 21 22  2  0
 22 23  1  0
 23 24  2  0
 24 25  1  0
 25 26  1  0
 25 27  2  0
 25 28  2  0
 17 29  2  0
 10 30  1  0
 30 31  2  0
 30 32  1  0
 32 33  1  0
 32 34  2  0
 32 35  2  0
  5 36  1  0
 36 37  2  0
 37 38  1  0
 38 39  2  0
 38 40  1  0
 40 41  2  0
 41 42  1  0
 42 43  2  0
 43 44  1  0
 44 45  2  0
 45 46  1  0
 46 47  2  0
  3 48  1  0
 48 49  1  0
 48 50  2  0
 48 51  2  0
 37  2  1  0
 45 40  1  0
 31  7  1  0
 46 36  1  0
 29 12  1  0
 24 19  1  0
M  END
$$$$
