
     RDKit          3D

 51 56  0  0  0  0  0  0  0  0999 V2000
  164.7097  155.0085  128.4222 N   0  0  0  0  0  0  0  0  0  0  0  0
  165.5509  154.0389  127.7965 C   0  0  0  0  0  0  0  0  0  0  0  0
  165.7300  152.7987  128.3616 C   0  0  0  0  0  0  0  0  0  0  0  0
  166.5464  151.8843  127.7392 C   0  0  0  0  0  0  0  0  0  0  0  0
  167.2101  152.1715  126.5388 C   0  0  0  0  0  0  0  0  0  0  0  0
  168.0346  151.2118  125.9201 N   0  0  0  0  0  0  0  0  0  0  0  0
  168.0072  149.8212  126.0838 C   0  0  0  0  0  0  0  0  0  0  0  0
  169.1826  149.1331  126.2274 C   0  0  0  0  0  0  0  0  0  0  0  0
  169.2638  147.7439  126.3719 C   0  0  0  0  0  0  0  0  0  0  0  0
  168.0979  147.0130  126.3712 C   0  0  0  0  0  0  0  0  0  0  0  0
  168.1012  145.6329  126.5084 N   0  0  0  0  0  0  0  0  0  0  0  0
  168.8742  144.6893  125.7955 C   0  0  0  0  0  0  0  0  0  0  0  0
  168.8325  143.3682  125.9655 N   0  0  0  0  0  0  0  0  0  0  0  0
  169.5966  142.5466  125.2505 C   0  0  0  0  0  0  0  0  0  0  0  0
  169.5279  140.7908  125.4909 Cl  0  0  0  0  0  0  0  0  0  0  0  0
  170.4494  143.0003  124.3207 N   0  0  0  0  0  0  0  0  0  0  0  0
  170.5191  144.3570  124.1182 C   0  0  0  0  0  0  0  0  0  0  0  0
  171.4164  144.8480  123.1379 N   0  0  0  0  0  0  0  0  0  0  0  0
  171.6261  146.1813  122.7477 C   0  0  0  0  0  0  0  0  0  0  0  0
  170.6523  147.1360  122.7817 C   0  0  0  0  0  0  0  0  0  0  0  0
  170.8965  148.4565  122.3854 C   0  0  0  0  0  0  0  0  0  0  0  0
  172.1518  148.7904  121.9527 C   0  0  0  0  0  0  0  0  0  0  0  0
  173.1413  147.8518  121.9104 C   0  0  0  0  0  0  0  0  0  0  0  0
  172.8944  146.5547  122.3015 C   0  0  0  0  0  0  0  0  0  0  0  0
  174.1384  145.3457  122.2545 S   0  0  0  0  0  6  0  0  0  0  0  0
  173.5834  144.0422  121.3398 O   0  0  0  0  0  0  0  0  0  0  0  0
  174.5052  144.8828  123.6422 O   0  0  0  0  0  0  0  0  0  0  0  0
  175.3889  145.8629  121.5933 O   0  0  0  0  0  0  0  0  0  0  0  0
  169.7442  145.1393  124.8483 N   0  0  0  0  0  0  0  0  0  0  0  0
  166.8880  147.7254  126.2229 C   0  0  0  0  0  0  0  0  0  0  0  0
  166.8393  149.0877  126.0832 C   0  0  0  0  0  0  0  0  0  0  0  0
  165.4183  146.7808  126.2248 S   0  0  0  0  0  6  0  0  0  0  0  0
  165.2989  145.9514  127.6745 O   0  0  0  0  0  0  0  0  0  0  0  0
  165.4684  145.7845  125.0732 O   0  0  0  0  0  0  0  0  0  0  0  0
  164.1883  147.6593  126.0662 O   0  0  0  0  0  0  0  0  0  0  0  0
  167.0103  153.4118  126.0002 C   0  0  0  0  0  0  0  0  0  0  0  0
  166.1788  154.3526  126.6289 C   0  0  0  0  0  0  0  0  0  0  0  0
  165.9253  155.6775  126.0755 C   0  0  0  0  0  0  0  0  0  0  0  0
  165.1812  156.5159  126.6445 O   0  0  0  0  0  0  0  0  0  0  0  0
  166.5409  156.0782  124.8172 C   0  0  0  0  0  0  0  0  0  0  0  0
  166.3209  157.3201  124.2715 C   0  0  0  0  0  0  0  0  0  0  0  0
  166.9326  157.6619  123.0611 C   0  0  0  0  0  0  0  0  0  0  0  0
  167.7480  156.7402  122.4376 C   0  0  0  0  0  0  0  0  0  0  0  0
  167.9666  155.4846  122.9955 C   0  0  0  0  0  0  0  0  0  0  0  0
  167.3563  155.1636  124.1889 C   0  0  0  0  0  0  0  0  0  0  0  0
  167.6066  153.8304  124.7544 C   0  0  0  0  0  0  0  0  0  0  0  0
  168.3495  153.0584  124.1273 O   0  0  0  0  0  0  0  0  0  0  0  0
  164.9123  152.4223  129.8574 S   0  0  0  0  0  6  0  0  0  0  0  0
  165.4028  153.4247  131.1012 O   0  0  0  0  0  0  0  0  0  0  0  0
  163.4104  152.5208  129.6527 O   0  0  0  0  0  0  0  0  0  0  0  0
  165.1935  151.0081  130.2809 O   0  0  0  0  0  0  0  0  0  0  0  0
  1  2  1  0
  2  3  2  0
  3  4  1  0
  4  5  2  0
  5  6  1  0
  6  7  1  0
  7  8  2  0
  8  9  1  0
  9 10  2  0
 10 11  1  0
 11 12  1  0
 12 13  2  0
 13 14  1  0
 14 15  1  0
 14 16  2  0
 16 17  1  0
 17 18  1  0
 18 19  1  0
 19 20  2  0
 20 21  1  0
 21 22  2  0
 22 23  1  0
 23 24  2  0
 24 25  1  0
 25 26  1  0
 25 27  2  0
 25 28  2  0
 17 29  2  0
 10 30  1  0
 30 31  2  0
 30 32  1  0
 32 33  1  0
 32 34  2  0
 32 35  2  0
  5 36  1  0
 36 37  2  0
 37 38  1  0
 38 39  2  0
 38 40  1  0
 40 41  2  0
 41 42  1  0
 42 43  2  0
 43 44  1  0
 44 45  2  0
 45 46  1  0
 46 47  2  0
  3 48  1  0
 48 49  1  0
 48 50  2  0
 48 51  2  0
 37  2  1  0
 45 40  1  0
 31  7  1  0
 46 36  1  0
 29 12  1  0
 24 19  1  0
M  END
$$$$
