
     RDKit          3D

 37 41  0  0  0  0  0  0  0  0999 V2000
  150.4624  167.0719  125.4327 C   0  0  0  0  0  0  0  0  0  0  0  0
  149.9712  165.7094  125.8182 C   0  0  0  0  0  0  0  0  0  0  0  0
  150.4298  164.6553  125.3154 O   0  0  0  0  0  0  0  0  0  0  0  0
  148.9718  165.5375  126.7625 O   0  0  0  0  0  0  0  0  0  0  0  0
  148.7709  166.4188  127.8064 C   0  0  1  0  0  0  0  0  0  0  0  0
  149.9872  166.9260  128.4851 C   0  0  0  0  0  0  0  0  0  0  0  0
  149.6270  167.6111  129.7848 C   0  0  0  0  0  0  0  0  0  0  0  0
  148.6007  168.7038  129.6050 C   0  0  1  0  0  0  0  0  0  0  0  0
  149.3611  169.9302  129.1553 C   0  0  0  0  0  0  0  0  0  0  0  0
  147.5089  168.3085  128.6454 C   0  0  1  0  0  0  0  0  0  0  0  0
  146.5885  169.4831  128.4196 C   0  0  0  0  0  0  0  0  0  0  0  0
  145.9243  169.8909  129.7023 C   0  0  0  0  0  0  0  0  0  0  0  0
  146.7819  169.9004  130.8994 C   0  0  2  0  0  0  0  0  0  0  0  0
  147.3785  171.2867  131.1360 C   0  0  0  0  0  0  0  0  0  0  0  0
  147.9010  168.8958  130.9218 C   0  0  2  0  0  0  0  0  0  0  0  0
  148.7408  169.1833  132.0781 C   0  0  0  0  0  0  0  0  0  0  0  0
  149.9673  168.9393  132.1895 O   0  0  0  0  0  0  0  0  0  0  0  0
  148.0931  169.8183  133.2222 C   0  0  0  0  0  0  0  0  0  0  0  0
  146.7840  170.0328  133.2949 C   0  0  0  0  0  0  0  0  0  0  0  0
  146.2625  170.6822  134.5052 C   0  0  2  0  0  0  0  0  0  0  0  0
  146.3409  169.7575  135.7280 C   0  0  0  0  0  0  0  0  0  0  0  0
  146.2142  170.6077  136.9809 C   0  0  2  0  0  0  0  0  0  0  0  0
  145.9005  169.6774  138.1527 C   0  0  0  0  0  0  0  0  0  0  0  0
  145.0715  171.5813  136.8807 C   0  0  0  0  0  0  0  0  0  0  0  0
  144.1653  171.1348  135.7799 C   0  0  0  0  0  0  0  0  0  0  0  0
  144.8791  171.2036  134.4178 C   0  0  1  0  0  0  0  0  0  0  0  0
  144.9132  172.6852  134.0601 C   0  0  0  0  0  0  0  0  0  0  0  0
  143.9990  170.4772  133.4638 C   0  0  0  0  0  0  0  0  0  0  0  0
  144.6407  170.3881  132.1035 C   0  0  0  0  0  0  0  0  0  0  0  0
  145.9455  169.6021  132.1481 C   0  0  1  0  0  0  0  0  0  0  0  0
  145.5533  168.1424  132.2145 C   0  0  0  0  0  0  0  0  0  0  0  0
  147.4489  171.3486  137.2704 C   0  0  0  0  0  0  0  0  0  0  0  0
  148.6735  170.9902  136.7137 O   0  0  0  0  0  0  0  0  0  0  0  0
  147.4507  172.3440  138.0382 O   0  0  0  0  0  0  0  0  0  0  0  0
  147.9325  167.6330  127.4003 C   0  0  0  0  0  0  0  0  0  0  0  0
  146.6601  167.0224  126.7847 C   0  0  0  0  0  0  0  0  0  0  0  0
  148.5638  168.4637  126.3574 C   0  0  0  0  0  0  0  0  0  0  0  0
  1  2  1  0
  2  3  2  0
  2  4  1  0
  5  4  1  6
  5  6  1  0
  6  7  1  0
  7  8  1  0
  8  9  1  6
  8 10  1  0
 10 11  1  6
 11 12  1  0
 12 13  1  0
 13 14  1  1
 13 15  1  0
 15 16  1  1
 16 17  2  0
 16 18  1  0
 18 19  2  0
 19 20  1  0
 20 21  1  1
 21 22  1  0
 22 23  1  1
 22 24  1  0
 24 25  1  0
 25 26  1  0
 26 27  1  6
 26 28  1  0
 28 29  1  0
 29 30  1  0
 30 31  1  1
 22 32  1  0
 32 33  1  0
 32 34  2  0
 10 35  1  0
 35 36  1  0
 35 37  1  0
 35  5  1  0
 15  8  1  0
 30 19  1  0
 30 13  1  0
 26 20  1  0
M  END
$$$$
