
     RDKit          3D

 37 41  0  0  0  0  0  0  0  0999 V2000
  152.7598  163.0255  125.8701 C   0  0  0  0  0  0  0  0  0  0  0  0
  152.6216  162.0213  126.9742 C   0  0  0  0  0  0  0  0  0  0  0  0
  153.0699  160.8526  126.8886 O   0  0  0  0  0  0  0  0  0  0  0  0
  151.9834  162.3328  128.1641 O   0  0  0  0  0  0  0  0  0  0  0  0
  151.4294  163.5731  128.4121 C   0  0  1  0  0  0  0  0  0  0  0  0
  152.2612  164.7492  128.0625 C   0  0  0  0  0  0  0  0  0  0  0  0
  151.6854  166.0097  128.6689 C   0  0  0  0  0  0  0  0  0  0  0  0
  150.2383  166.2290  128.2979 C   0  0  1  0  0  0  0  0  0  0  0  0
  150.2438  166.8745  126.9312 C   0  0  0  0  0  0  0  0  0  0  0  0
  149.4395  164.9524  128.3382 C   0  0  1  0  0  0  0  0  0  0  0  0
  148.0393  165.2198  127.8425 C   0  0  0  0  0  0  0  0  0  0  0  0
  147.3412  166.2070  128.7317 C   0  0  0  0  0  0  0  0  0  0  0  0
  148.1485  167.3525  129.1843 C   0  0  2  0  0  0  0  0  0  0  0  0
  147.9748  168.5492  128.2507 C   0  0  0  0  0  0  0  0  0  0  0  0
  149.6210  167.0994  129.3569 C   0  0  2  0  0  0  0  0  0  0  0  0
  150.2698  168.3783  129.6188 C   0  0  0  0  0  0  0  0  0  0  0  0
  151.4553  168.6850  129.3416 O   0  0  0  0  0  0  0  0  0  0  0  0
  149.4623  169.4067  130.2684 C   0  0  0  0  0  0  0  0  0  0  0  0
  148.2321  169.1922  130.7219 C   0  0  0  0  0  0  0  0  0  0  0  0
  147.5301  170.3164  131.3557 C   0  0  2  0  0  0  0  0  0  0  0  0
  148.1415  170.6767  132.7169 C   0  0  0  0  0  0  0  0  0  0  0  0
  147.6799  172.0742  133.0950 C   0  0  2  0  0  0  0  0  0  0  0  0
  147.9538  172.2743  134.5856 C   0  0  0  0  0  0  0  0  0  0  0  0
  146.1980  172.2441  132.8984 C   0  0  0  0  0  0  0  0  0  0  0  0
  145.5761  170.8892  132.7986 C   0  0  0  0  0  0  0  0  0  0  0  0
  146.0707  170.1480  131.5434 C   0  0  1  0  0  0  0  0  0  0  0  0
  145.3280  170.7952  130.3799 C   0  0  0  0  0  0  0  0  0  0  0  0
  145.6219  168.7390  131.7036 C   0  0  0  0  0  0  0  0  0  0  0  0
  146.1346  167.8814  130.5758 C   0  0  0  0  0  0  0  0  0  0  0  0
  147.6575  167.8339  130.5536 C   0  0  1  0  0  0  0  0  0  0  0  0
  148.0631  166.8772  131.6533 C   0  0  0  0  0  0  0  0  0  0  0  0
  148.3851  173.1119  132.3315 C   0  0  0  0  0  0  0  0  0  0  0  0
  149.2549  172.8006  131.2900 O   0  0  0  0  0  0  0  0  0  0  0  0
  148.2312  174.3327  132.5887 O   0  0  0  0  0  0  0  0  0  0  0  0
  150.0684  163.7570  127.7368 C   0  0  0  0  0  0  0  0  0  0  0  0
  149.2447  162.5475  128.2155 C   0  0  0  0  0  0  0  0  0  0  0  0
  150.1263  163.6876  126.2644 C   0  0  0  0  0  0  0  0  0  0  0  0
  1  2  1  0
  2  3  2  0
  2  4  1  0
  5  4  1  6
  5  6  1  0
  6  7  1  0
  7  8  1  0
  8  9  1  6
  8 10  1  0
 10 11  1  6
 11 12  1  0
 12 13  1  0
 13 14  1  6
 13 15  1  0
 15 16  1  6
 16 17  2  0
 16 18  1  0
 18 19  2  0
 19 20  1  0
 20 21  1  1
 21 22  1  0
 22 23  1  1
 22 24  1  0
 24 25  1  0
 25 26  1  0
 26 27  1  6
 26 28  1  0
 28 29  1  0
 29 30  1  0
 30 31  1  1
 22 32  1  0
 32 33  1  0
 32 34  2  0
 10 35  1  0
 35 36  1  0
 35 37  1  0
 35  5  1  0
 15  8  1  0
 30 19  1  0
 30 13  1  0
 26 20  1  0
M  END
$$$$
