
     RDKit          3D

 37 41  0  0  0  0  0  0  0  0999 V2000
  159.6316  144.4500  125.3953 C   0  0  0  0  0  0  0  0  0  0  0  0
  159.2220  145.8864  125.2715 C   0  0  0  0  0  0  0  0  0  0  0  0
  158.5473  146.3189  124.3061 O   0  0  0  0  0  0  0  0  0  0  0  0
  159.5702  146.8265  126.2281 O   0  0  0  0  0  0  0  0  0  0  0  0
  160.8798  147.1825  126.4834 C   0  0  1  0  0  0  0  0  0  0  0  0
  161.8834  146.0933  126.4238 C   0  0  0  0  0  0  0  0  0  0  0  0
  163.1960  146.5432  127.0262 C   0  0  0  0  0  0  0  0  0  0  0  0
  163.7226  147.8119  126.3996 C   0  0  1  0  0  0  0  0  0  0  0  0
  164.4331  147.3960  125.1320 C   0  0  0  0  0  0  0  0  0  0  0  0
  162.6323  148.8220  126.1541 C   0  0  1  0  0  0  0  0  0  0  0  0
  163.2040  150.0103  125.4200 C   0  0  0  0  0  0  0  0  0  0  0  0
  164.2573  150.6882  126.2469 C   0  0  0  0  0  0  0  0  0  0  0  0
  165.1888  149.7994  126.9617 C   0  0  2  0  0  0  0  0  0  0  0  0
  166.4487  149.5463  126.1356 C   0  0  0  0  0  0  0  0  0  0  0  0
  164.6356  148.4701  127.3964 C   0  0  2  0  0  0  0  0  0  0  0  0
  165.7405  147.6681  127.9072 C   0  0  0  0  0  0  0  0  0  0  0  0
  165.8188  146.4150  127.9021 O   0  0  0  0  0  0  0  0  0  0  0  0
  166.8702  148.3921  128.4828 C   0  0  0  0  0  0  0  0  0  0  0  0
  166.8807  149.7088  128.6602 C   0  0  0  0  0  0  0  0  0  0  0  0
  168.0837  150.3107  129.2508 C   0  0  2  0  0  0  0  0  0  0  0  0
  168.2334  149.9484  130.7350 C   0  0  0  0  0  0  0  0  0  0  0  0
  169.6704  150.2146  131.1510 C   0  0  2  0  0  0  0  0  0  0  0  0
  169.7236  150.2334  132.6786 C   0  0  0  0  0  0  0  0  0  0  0  0
  170.1456  151.5632  130.6827 C   0  0  0  0  0  0  0  0  0  0  0  0
  168.9514  152.3880  130.3278 C   0  0  0  0  0  0  0  0  0  0  0  0
  168.2010  151.7819  129.1282 C   0  0  1  0  0  0  0  0  0  0  0  0
  169.0513  152.1269  127.9107 C   0  0  0  0  0  0  0  0  0  0  0  0
  166.9039  152.5061  129.0558 C   0  0  0  0  0  0  0  0  0  0  0  0
  166.0285  151.9314  127.9724 C   0  0  0  0  0  0  0  0  0  0  0  0
  165.6776  150.4742  128.2476 C   0  0  1  0  0  0  0  0  0  0  0  0
  164.5962  150.4961  129.3053 C   0  0  0  0  0  0  0  0  0  0  0  0
  170.5885  149.1839  130.6490 C   0  0  0  0  0  0  0  0  0  0  0  0
  171.9592  149.2361  130.8863 O   0  0  0  0  0  0  0  0  0  0  0  0
  170.1712  148.2051  129.9795 O   0  0  0  0  0  0  0  0  0  0  0  0
  161.3724  148.3103  125.5736 C   0  0  0  0  0  0  0  0  0  0  0  0
  160.3269  149.4255  125.7573 C   0  0  0  0  0  0  0  0  0  0  0  0
  161.3794  147.9530  124.1423 C   0  0  0  0  0  0  0  0  0  0  0  0
  1  2  1  0
  2  3  2  0
  2  4  1  0
  5  4  1  6
  5  6  1  0
  6  7  1  0
  7  8  1  0
  8  9  1  6
  8 10  1  0
 10 11  1  6
 11 12  1  0
 12 13  1  0
 13 14  1  6
 13 15  1  0
 15 16  1  6
 16 17  2  0
 16 18  1  0
 18 19  2  0
 19 20  1  0
 20 21  1  1
 21 22  1  0
 22 23  1  1
 22 24  1  0
 24 25  1  0
 25 26  1  0
 26 27  1  6
 26 28  1  0
 28 29  1  0
 29 30  1  0
 30 31  1  1
 22 32  1  0
 32 33  1  0
 32 34  2  0
 10 35  1  0
 35 36  1  0
 35 37  1  0
 35  5  1  0
 15  8  1  0
 30 19  1  0
 30 13  1  0
 26 20  1  0
M  END
$$$$
