
     RDKit          3D

 37 41  0  0  0  0  0  0  0  0999 V2000
  101.8205  160.1379  152.3428 C   0  0  0  0  0  0  0  0  0  0  0  0
  102.5747  160.7375  151.1948 C   0  0  0  0  0  0  0  0  0  0  0  0
  102.2348  160.5710  149.9986 O   0  0  0  0  0  0  0  0  0  0  0  0
  103.7021  161.5180  151.3944 O   0  0  0  0  0  0  0  0  0  0  0  0
  103.7613  162.5146  152.3484 C   0  0  1  0  0  0  0  0  0  0  0  0
  102.5607  163.3738  152.4804 C   0  0  0  0  0  0  0  0  0  0  0  0
  102.8695  164.5987  153.3126 C   0  0  0  0  0  0  0  0  0  0  0  0
  103.4528  164.2567  154.6626 C   0  0  1  0  0  0  0  0  0  0  0  0
  102.2818  163.9275  155.5598 C   0  0  0  0  0  0  0  0  0  0  0  0
  104.4597  163.1391  154.5822 C   0  0  1  0  0  0  0  0  0  0  0  0
  104.9109  162.7679  155.9738 C   0  0  0  0  0  0  0  0  0  0  0  0
  105.5906  163.9293  156.6386 C   0  0  0  0  0  0  0  0  0  0  0  0
  104.9617  165.2460  156.4402 C   0  0  2  0  0  0  0  0  0  0  0  0
  103.9937  165.5685  157.5773 C   0  0  0  0  0  0  0  0  0  0  0  0
  104.2400  165.4468  155.1360 C   0  0  2  0  0  0  0  0  0  0  0  0
  103.5325  166.7195  155.2045 C   0  0  0  0  0  0  0  0  0  0  0  0
  102.4795  167.0226  154.5915 O   0  0  0  0  0  0  0  0  0  0  0  0
  104.1035  167.7457  156.0718 C   0  0  0  0  0  0  0  0  0  0  0  0
  105.2703  167.6117  156.6929 C   0  0  0  0  0  0  0  0  0  0  0  0
  105.7283  168.7231  157.5375 C   0  0  2  0  0  0  0  0  0  0  0  0
  106.1317  169.9462  156.7021 C   0  0  0  0  0  0  0  0  0  0  0  0
  106.1623  171.1609  157.6145 C   0  0  2  0  0  0  0  0  0  0  0  0
  106.9268  172.2721  156.8950 C   0  0  0  0  0  0  0  0  0  0  0  0
  106.9044  170.8796  158.8927 C   0  0  0  0  0  0  0  0  0  0  0  0
  107.7333  169.6518  158.6975 C   0  0  0  0  0  0  0  0  0  0  0  0
  106.8426  168.4183  158.4642 C   0  0  1  0  0  0  0  0  0  0  0  0
  106.2828  168.0654  159.8376 C   0  0  0  0  0  0  0  0  0  0  0  0
  107.7584  167.3405  158.0036 C   0  0  0  0  0  0  0  0  0  0  0  0
  106.9860  166.0979  157.6436 C   0  0  0  0  0  0  0  0  0  0  0  0
  106.0239  166.3492  156.4889 C   0  0  1  0  0  0  0  0  0  0  0  0
  106.8687  166.3581  155.2339 C   0  0  0  0  0  0  0  0  0  0  0  0
  104.8121  171.6378  157.9412 C   0  0  0  0  0  0  0  0  0  0  0  0
  103.6792  170.8606  157.7165 O   0  0  0  0  0  0  0  0  0  0  0  0
  104.6225  172.7757  158.4409 O   0  0  0  0  0  0  0  0  0  0  0  0
  104.0965  161.9780  153.7419 C   0  0  0  0  0  0  0  0  0  0  0  0
  105.3921  161.1727  153.5331 C   0  0  0  0  0  0  0  0  0  0  0  0
  103.0857  161.0442  154.2734 C   0  0  0  0  0  0  0  0  0  0  0  0
  1  2  1  0
  2  3  2  0
  2  4  1  0
  5  4  1  6
  5  6  1  0
  6  7  1  0
  7  8  1  0
  8  9  1  1
  8 10  1  0
 10 11  1  1
 11 12  1  0
 12 13  1  0
 13 14  1  1
 13 15  1  0
 15 16  1  1
 16 17  2  0
 16 18  1  0
 18 19  2  0
 19 20  1  0
 20 21  1  6
 21 22  1  0
 22 23  1  6
 22 24  1  0
 24 25  1  0
 25 26  1  0
 26 27  1  1
 26 28  1  0
 28 29  1  0
 29 30  1  0
 30 31  1  6
 22 32  1  0
 32 33  1  0
 32 34  2  0
 10 35  1  0
 35 36  1  0
 35 37  1  0
 35  5  1  0
 15  8  1  0
 30 19  1  0
 30 13  1  0
 26 20  1  0
M  END
$$$$
