
     RDKit          3D

 37 41  0  0  0  0  0  0  0  0999 V2000
   97.3526  164.5347  156.6836 C   0  0  0  0  0  0  0  0  0  0  0  0
   98.2614  163.5367  156.0321 C   0  0  0  0  0  0  0  0  0  0  0  0
   97.9285  162.3432  155.8348 O   0  0  0  0  0  0  0  0  0  0  0  0
   99.5342  163.8820  155.6069 O   0  0  0  0  0  0  0  0  0  0  0  0
  100.4301  164.5628  156.4075 C   0  0  1  0  0  0  0  0  0  0  0  0
   99.9454  164.9593  157.7509 C   0  0  0  0  0  0  0  0  0  0  0  0
  100.8893  165.9559  158.3865 C   0  0  0  0  0  0  0  0  0  0  0  0
  102.3144  165.4599  158.4396 C   0  0  1  0  0  0  0  0  0  0  0  0
  102.4098  164.5731  159.6599 C   0  0  0  0  0  0  0  0  0  0  0  0
  102.7206  164.7552  157.1717 C   0  0  1  0  0  0  0  0  0  0  0  0
  104.1069  164.1821  157.3372 C   0  0  0  0  0  0  0  0  0  0  0  0
  105.1077  165.2749  157.5763 C   0  0  0  0  0  0  0  0  0  0  0  0
  104.6858  166.3483  158.4920 C   0  0  2  0  0  0  0  0  0  0  0  0
  105.1344  166.0566  159.9229 C   0  0  0  0  0  0  0  0  0  0  0  0
  103.2149  166.6615  158.5141 C   0  0  2  0  0  0  0  0  0  0  0  0
  102.9710  167.6008  159.6018 C   0  0  0  0  0  0  0  0  0  0  0  0
  101.9062  167.7272  160.2549 O   0  0  0  0  0  0  0  0  0  0  0  0
  104.0737  168.4839  159.9703 C   0  0  0  0  0  0  0  0  0  0  0  0
  105.2180  168.5445  159.2978 C   0  0  0  0  0  0  0  0  0  0  0  0
  106.2458  169.4781  159.7776 C   0  0  2  0  0  0  0  0  0  0  0  0
  105.8439  170.9406  159.5407 C   0  0  0  0  0  0  0  0  0  0  0  0
  106.7035  171.8240  160.4292 C   0  0  2  0  0  0  0  0  0  0  0  0
  106.5872  173.2607  159.9200 C   0  0  0  0  0  0  0  0  0  0  0  0
  108.1584  171.4498  160.3470 C   0  0  0  0  0  0  0  0  0  0  0  0
  108.3648  170.6212  159.1209 C   0  0  0  0  0  0  0  0  0  0  0  0
  107.6066  169.2857  159.2256 C   0  0  1  0  0  0  0  0  0  0  0  0
  108.4309  168.4335  160.1840 C   0  0  0  0  0  0  0  0  0  0  0  0
  107.6474  168.6905  157.8631 C   0  0  0  0  0  0  0  0  0  0  0  0
  106.8466  167.4153  157.8107 C   0  0  0  0  0  0  0  0  0  0  0  0
  105.3739  167.6638  158.1131 C   0  0  1  0  0  0  0  0  0  0  0  0
  104.7810  168.2540  156.8524 C   0  0  0  0  0  0  0  0  0  0  0  0
  106.2761  171.7738  161.8335 C   0  0  0  0  0  0  0  0  0  0  0  0
  104.9444  171.5884  162.1945 O   0  0  0  0  0  0  0  0  0  0  0  0
  107.1010  171.8971  162.7740 O   0  0  0  0  0  0  0  0  0  0  0  0
  101.7445  163.8030  156.6000 C   0  0  0  0  0  0  0  0  0  0  0  0
  102.2198  163.5045  155.1663 C   0  0  0  0  0  0  0  0  0  0  0  0
  101.5812  162.5053  157.2824 C   0  0  0  0  0  0  0  0  0  0  0  0
  1  2  1  0
  2  3  2  0
  2  4  1  0
  5  4  1  1
  5  6  1  0
  6  7  1  0
  7  8  1  0
  8  9  1  1
  8 10  1  0
 10 11  1  1
 11 12  1  0
 12 13  1  0
 13 14  1  1
 13 15  1  0
 15 16  1  1
 16 17  2  0
 16 18  1  0
 18 19  2  0
 19 20  1  0
 20 21  1  6
 21 22  1  0
 22 23  1  6
 22 24  1  0
 24 25  1  0
 25 26  1  0
 26 27  1  1
 26 28  1  0
 28 29  1  0
 29 30  1  0
 30 31  1  6
 22 32  1  0
 32 33  1  0
 32 34  2  0
 10 35  1  0
 35 36  1  0
 35 37  1  0
 35  5  1  0
 15  8  1  0
 30 19  1  0
 30 13  1  0
 26 20  1  0
M  END
$$$$
