
     RDKit          3D

 37 41  0  0  0  0  0  0  0  0999 V2000
  169.9002  168.3008  111.2386 C   0  0  0  0  0  0  0  0  0  0  0  0
  169.0327  167.0944  111.0426 C   0  0  0  0  0  0  0  0  0  0  0  0
  167.8649  167.0176  111.4948 O   0  0  0  0  0  0  0  0  0  0  0  0
  169.4786  165.9846  110.3429 O   0  0  0  0  0  0  0  0  0  0  0  0
  170.8007  165.5858  110.3388 C   0  0  1  0  0  0  0  0  0  0  0  0
  171.7549  166.4715  109.6302 C   0  0  0  0  0  0  0  0  0  0  0  0
  173.0814  165.7733  109.4269 C   0  0  0  0  0  0  0  0  0  0  0  0
  173.6695  165.2487  110.7147 C   0  0  1  0  0  0  0  0  0  0  0  0
  174.3710  166.4174  111.3679 C   0  0  0  0  0  0  0  0  0  0  0  0
  172.6276  164.6214  111.6036 C   0  0  1  0  0  0  0  0  0  0  0  0
  173.2580  164.2294  112.9177 C   0  0  0  0  0  0  0  0  0  0  0  0
  174.3338  163.2045  112.7053 C   0  0  0  0  0  0  0  0  0  0  0  0
  175.2186  163.4267  111.5492 C   0  0  2  0  0  0  0  0  0  0  0  0
  176.4727  164.1974  111.9582 C   0  0  0  0  0  0  0  0  0  0  0  0
  174.6028  164.1227  110.3666 C   0  0  2  0  0  0  0  0  0  0  0  0
  175.6665  164.4192  109.4149 C   0  0  0  0  0  0  0  0  0  0  0  0
  175.6885  165.3658  108.5905 O   0  0  0  0  0  0  0  0  0  0  0  0
  176.8226  163.5276  109.4189 C   0  0  0  0  0  0  0  0  0  0  0  0
  176.8907  162.4221  110.1526 C   0  0  0  0  0  0  0  0  0  0  0  0
  178.1146  161.6145  110.0623 C   0  0  2  0  0  0  0  0  0  0  0  0
  178.2356  160.9116  108.7029 C   0  0  0  0  0  0  0  0  0  0  0  0
  179.6797  160.4779  108.5144 C   0  0  2  0  0  0  0  0  0  0  0  0
  179.7210  159.4575  107.3768 C   0  0  0  0  0  0  0  0  0  0  0  0
  180.2186  159.7875  109.7377 C   0  0  0  0  0  0  0  0  0  0  0  0
  179.0656  159.3684  110.5904 C   0  0  0  0  0  0  0  0  0  0  0  0
  178.2987  160.5938  111.1195 C   0  0  1  0  0  0  0  0  0  0  0  0
  179.1736  161.1619  112.2313 C   0  0  0  0  0  0  0  0  0  0  0  0
  177.0360  160.0610  111.6974 C   0  0  0  0  0  0  0  0  0  0  0  0
  176.1447  161.1826  112.1642 C   0  0  0  0  0  0  0  0  0  0  0  0
  175.7266  162.0855  111.0100 C   0  0  1  0  0  0  0  0  0  0  0  0
  174.6385  161.3407  110.2682 C   0  0  0  0  0  0  0  0  0  0  0  0
  180.5547  161.6090  108.1798 C   0  0  0  0  0  0  0  0  0  0  0  0
  180.0612  162.8992  108.0065 O   0  0  0  0  0  0  0  0  0  0  0  0
  181.7943  161.4577  108.0351 O   0  0  0  0  0  0  0  0  0  0  0  0
  171.3509  165.3530  111.7478 C   0  0  0  0  0  0  0  0  0  0  0  0
  170.3549  164.3648  112.3819 C   0  0  0  0  0  0  0  0  0  0  0  0
  171.3537  166.5657  112.5878 C   0  0  0  0  0  0  0  0  0  0  0  0
  1  2  1  0
  2  3  2  0
  2  4  1  0
  5  4  1  1
  5  6  1  0
  6  7  1  0
  7  8  1  0
  8  9  1  1
  8 10  1  0
 10 11  1  1
 11 12  1  0
 12 13  1  0
 13 14  1  1
 13 15  1  0
 15 16  1  6
 16 17  2  0
 16 18  1  0
 18 19  2  0
 19 20  1  0
 20 21  1  6
 21 22  1  0
 22 23  1  6
 22 24  1  0
 24 25  1  0
 25 26  1  0
 26 27  1  1
 26 28  1  0
 28 29  1  0
 29 30  1  0
 30 31  1  6
 22 32  1  0
 32 33  1  0
 32 34  2  0
 10 35  1  0
 35 36  1  0
 35 37  1  0
 35  5  1  0
 15  8  1  0
 30 19  1  0
 30 13  1  0
 26 20  1  0
M  END
$$$$
