
     RDKit          3D

 37 41  0  0  0  0  0  0  0  0999 V2000
  149.2346  165.6814  124.1886 C   0  0  0  0  0  0  0  0  0  0  0  0
  149.4481  164.3136  124.7629 C   0  0  0  0  0  0  0  0  0  0  0  0
  149.7952  163.3308  124.0643 O   0  0  0  0  0  0  0  0  0  0  0  0
  149.2717  164.0566  126.1131 O   0  0  0  0  0  0  0  0  0  0  0  0
  149.1613  165.0594  127.0561 C   0  0  1  0  0  0  0  0  0  0  0  0
  150.2303  166.0861  127.0557 C   0  0  0  0  0  0  0  0  0  0  0  0
  150.1673  166.9230  128.3142 C   0  0  0  0  0  0  0  0  0  0  0  0
  148.8087  167.5430  128.5368 C   0  0  1  0  0  0  0  0  0  0  0  0
  148.7687  168.7934  127.6888 C   0  0  0  0  0  0  0  0  0  0  0  0
  147.6874  166.5874  128.2224 C   0  0  1  0  0  0  0  0  0  0  0  0
  146.3654  167.3046  128.3489 C   0  0  0  0  0  0  0  0  0  0  0  0
  146.1555  167.7861  129.7549 C   0  0  0  0  0  0  0  0  0  0  0  0
  147.3312  168.3741  130.4188 C   0  0  2  0  0  0  0  0  0  0  0  0
  147.3609  169.8910  130.2397 C   0  0  0  0  0  0  0  0  0  0  0  0
  148.6694  167.8248  130.0070 C   0  0  2  0  0  0  0  0  0  0  0  0
  149.7027  168.6503  130.6201 C   0  0  0  0  0  0  0  0  0  0  0  0
  150.8593  168.8519  130.1752 O   0  0  0  0  0  0  0  0  0  0  0  0
  149.3608  169.3094  131.8772 C   0  0  0  0  0  0  0  0  0  0  0  0
  148.2200  169.1007  132.5254 C   0  0  0  0  0  0  0  0  0  0  0  0
  148.0027  169.8304  133.7818 C   0  0  2  0  0  0  0  0  0  0  0  0
  148.9190  169.3213  134.9034 C   0  0  0  0  0  0  0  0  0  0  0  0
  148.9644  170.3725  135.9997 C   0  0  2  0  0  0  0  0  0  0  0  0
  149.5384  169.7186  137.2566 C   0  0  0  0  0  0  0  0  0  0  0  0
  147.5885  170.8662  136.3559 C   0  0  0  0  0  0  0  0  0  0  0  0
  146.5860  169.8882  135.8355 C   0  0  0  0  0  0  0  0  0  0  0  0
  146.6143  169.8373  134.2973 C   0  0  1  0  0  0  0  0  0  0  0  0
  145.9072  171.1093  133.8433 C   0  0  0  0  0  0  0  0  0  0  0  0
  145.8034  168.6496  133.9178 C   0  0  0  0  0  0  0  0  0  0  0  0
  145.8362  168.4319  132.4272 C   0  0  0  0  0  0  0  0  0  0  0  0
  147.2491  168.1475  131.9319 C   0  0  1  0  0  0  0  0  0  0  0  0
  147.5369  166.7063  132.2909 C   0  0  0  0  0  0  0  0  0  0  0  0
  149.8021  171.5200  135.6273 C   0  0  0  0  0  0  0  0  0  0  0  0
  150.7409  172.0636  136.4998 O   0  0  0  0  0  0  0  0  0  0  0  0
  149.7052  172.0623  134.4974 O   0  0  0  0  0  0  0  0  0  0  0  0
  147.8204  165.7935  126.9822 C   0  0  0  0  0  0  0  0  0  0  0  0
  146.7712  164.6702  127.0727 C   0  0  0  0  0  0  0  0  0  0  0  0
  147.5999  166.4915  125.7014 C   0  0  0  0  0  0  0  0  0  0  0  0
  1  2  1  0
  2  3  2  0
  2  4  1  0
  5  4  1  6
  5  6  1  0
  6  7  1  0
  7  8  1  0
  8  9  1  6
  8 10  1  0
 10 11  1  6
 11 12  1  0
 12 13  1  0
 13 14  1  1
 13 15  1  0
 15 16  1  6
 16 17  2  0
 16 18  1  0
 18 19  2  0
 19 20  1  0
 20 21  1  1
 21 22  1  0
 22 23  1  1
 22 24  1  0
 24 25  1  0
 25 26  1  0
 26 27  1  6
 26 28  1  0
 28 29  1  0
 29 30  1  0
 30 31  1  6
 22 32  1  0
 32 33  1  0
 32 34  2  0
 10 35  1  0
 35 36  1  0
 35 37  1  0
 35  5  1  0
 15  8  1  0
 30 19  1  0
 30 13  1  0
 26 20  1  0
M  END
$$$$
