
     RDKit          3D

 37 41  0  0  0  0  0  0  0  0999 V2000
  185.1119  161.7614  144.8790 C   0  0  0  0  0  0  0  0  0  0  0  0
  186.1336  162.5449  144.1119 C   0  0  0  0  0  0  0  0  0  0  0  0
  186.2226  163.7946  144.1810 O   0  0  0  0  0  0  0  0  0  0  0  0
  187.0468  161.9245  143.2744 O   0  0  0  0  0  0  0  0  0  0  0  0
  186.8354  161.7764  141.9179 C   0  0  1  0  0  0  0  0  0  0  0  0
  185.5280  161.2080  141.5119 C   0  0  0  0  0  0  0  0  0  0  0  0
  185.5501  160.8060  140.0538 C   0  0  0  0  0  0  0  0  0  0  0  0
  185.9665  161.9352  139.1421 C   0  0  1  0  0  0  0  0  0  0  0  0
  184.7279  162.7687  138.9060 C   0  0  0  0  0  0  0  0  0  0  0  0
  187.1096  162.7350  139.7103 C   0  0  1  0  0  0  0  0  0  0  0  0
  187.3939  163.9138  138.8117 C   0  0  0  0  0  0  0  0  0  0  0  0
  187.8127  163.4514  137.4465 C   0  0  0  0  0  0  0  0  0  0  0  0
  187.0558  162.3184  136.8877 C   0  0  2  0  0  0  0  0  0  0  0  0
  185.8969  162.8072  136.0206 C   0  0  0  0  0  0  0  0  0  0  0  0
  186.5152  161.3272  137.8813 C   0  0  2  0  0  0  0  0  0  0  0  0
  185.6475  160.4000  137.1655 C   0  0  0  0  0  0  0  0  0  0  0  0
  184.6666  159.7768  137.6407 O   0  0  0  0  0  0  0  0  0  0  0  0
  185.9470  160.1717  135.7549 C   0  0  0  0  0  0  0  0  0  0  0  0
  187.0166  160.6704  135.1447 C   0  0  0  0  0  0  0  0  0  0  0  0
  187.1978  160.3627  133.7196 C   0  0  2  0  0  0  0  0  0  0  0  0
  187.5594  158.8878  133.4956 C   0  0  0  0  0  0  0  0  0  0  0  0
  187.2982  158.5460  132.0383 C   0  0  2  0  0  0  0  0  0  0  0  0
  188.0113  157.2301  131.7272 C   0  0  0  0  0  0  0  0  0  0  0  0
  187.8731  159.5821  131.1110 C   0  0  0  0  0  0  0  0  0  0  0  0
  188.8727  160.3928  131.8699 C   0  0  0  0  0  0  0  0  0  0  0  0
  188.1926  161.1891  132.9980 C   0  0  1  0  0  0  0  0  0  0  0  0
  187.4860  162.3455  132.2996 C   0  0  0  0  0  0  0  0  0  0  0  0
  189.2975  161.7139  133.8443 C   0  0  0  0  0  0  0  0  0  0  0  0
  188.7533  162.4352  135.0501 C   0  0  0  0  0  0  0  0  0  0  0  0
  187.9482  161.5024  135.9468 C   0  0  1  0  0  0  0  0  0  0  0  0
  188.9611  160.6845  136.7175 C   0  0  0  0  0  0  0  0  0  0  0  0
  185.8645  158.3960  131.7568 C   0  0  0  0  0  0  0  0  0  0  0  0
  184.8922  158.6401  132.7227 O   0  0  0  0  0  0  0  0  0  0  0  0
  185.4534  158.0386  130.6239 O   0  0  0  0  0  0  0  0  0  0  0  0
  187.0271  163.0833  141.1449 C   0  0  0  0  0  0  0  0  0  0  0  0
  188.4321  163.5606  141.5559 C   0  0  0  0  0  0  0  0  0  0  0  0
  186.0775  164.1432  141.5335 C   0  0  0  0  0  0  0  0  0  0  0  0
  1  2  1  0
  2  3  2  0
  2  4  1  0
  5  4  1  1
  5  6  1  0
  6  7  1  0
  7  8  1  0
  8  9  1  6
  8 10  1  0
 10 11  1  6
 11 12  1  0
 12 13  1  0
 13 14  1  6
 13 15  1  0
 15 16  1  6
 16 17  2  0
 16 18  1  0
 18 19  2  0
 19 20  1  0
 20 21  1  1
 21 22  1  0
 22 23  1  6
 22 24  1  0
 24 25  1  0
 25 26  1  0
 26 27  1  6
 26 28  1  0
 28 29  1  0
 29 30  1  0
 30 31  1  1
 22 32  1  0
 32 33  1  0
 32 34  2  0
 10 35  1  0
 35 36  1  0
 35 37  1  0
 35  5  1  0
 15  8  1  0
 30 19  1  0
 30 13  1  0
 26 20  1  0
M  END
$$$$
