
     RDKit          3D

 37 41  0  0  0  0  0  0  0  0999 V2000
  145.2375  172.0809  134.1319 C   0  0  0  0  0  0  0  0  0  0  0  0
  145.9783  172.9399  133.1523 C   0  0  0  0  0  0  0  0  0  0  0  0
  146.2963  174.1287  133.3970 O   0  0  0  0  0  0  0  0  0  0  0  0
  146.3570  172.4623  131.9079 O   0  0  0  0  0  0  0  0  0  0  0  0
  147.0325  171.2697  131.7396 C   0  0  1  0  0  0  0  0  0  0  0  0
  148.0512  170.9380  132.7639 C   0  0  0  0  0  0  0  0  0  0  0  0
  148.9235  169.7932  132.2985 C   0  0  0  0  0  0  0  0  0  0  0  0
  148.1259  168.5746  131.9005 C   0  0  1  0  0  0  0  0  0  0  0  0
  147.8159  167.8336  133.1808 C   0  0  0  0  0  0  0  0  0  0  0  0
  146.8893  168.9328  131.1183 C   0  0  1  0  0  0  0  0  0  0  0  0
  146.0800  167.6856  130.8586 C   0  0  0  0  0  0  0  0  0  0  0  0
  146.8614  166.7094  130.0284 C   0  0  0  0  0  0  0  0  0  0  0  0
  148.2829  166.5543  130.3807 C   0  0  2  0  0  0  0  0  0  0  0  0
  148.4826  165.3983  131.3592 C   0  0  0  0  0  0  0  0  0  0  0  0
  148.9633  167.7715  130.9443 C   0  0  2  0  0  0  0  0  0  0  0  0
  150.2886  167.3742  131.4032 C   0  0  0  0  0  0  0  0  0  0  0  0
  150.9499  167.9076  132.3276 O   0  0  0  0  0  0  0  0  0  0  0  0
  150.9112  166.2433  130.7213 C   0  0  0  0  0  0  0  0  0  0  0  0
  150.3841  165.6527  129.6543 C   0  0  0  0  0  0  0  0  0  0  0  0
  151.1159  164.5233  129.0651 C   0  0  2  0  0  0  0  0  0  0  0  0
  152.4081  164.9790  128.3731 C   0  0  0  0  0  0  0  0  0  0  0  0
  153.3061  163.7673  128.1883 C   0  0  2  0  0  0  0  0  0  0  0  0
  154.3890  164.1330  127.1732 C   0  0  0  0  0  0  0  0  0  0  0  0
  152.5525  162.5968  127.6177 C   0  0  0  0  0  0  0  0  0  0  0  0
  151.2784  163.1004  127.0214 C   0  0  0  0  0  0  0  0  0  0  0  0
  150.3576  163.6872  128.1062 C   0  0  1  0  0  0  0  0  0  0  0  0
  149.7753  162.4790  128.8312 C   0  0  0  0  0  0  0  0  0  0  0  0
  149.2774  164.4023  127.3753 C   0  0  0  0  0  0  0  0  0  0  0  0
  148.3576  165.1103  128.3359 C   0  0  0  0  0  0  0  0  0  0  0  0
  149.0948  166.1762  129.1375 C   0  0  1  0  0  0  0  0  0  0  0  0
  149.2636  167.3578  128.2078 C   0  0  0  0  0  0  0  0  0  0  0  0
  153.9432  163.3576  129.4467 C   0  0  0  0  0  0  0  0  0  0  0  0
  154.0450  164.2166  130.5374 O   0  0  0  0  0  0  0  0  0  0  0  0
  154.4262  162.2060  129.5916 O   0  0  0  0  0  0  0  0  0  0  0  0
  146.0902  170.0693  131.6245 C   0  0  0  0  0  0  0  0  0  0  0  0
  145.1234  170.4574  130.4908 C   0  0  0  0  0  0  0  0  0  0  0  0
  145.2743  169.8419  132.8322 C   0  0  0  0  0  0  0  0  0  0  0  0
  1  2  1  0
  2  3  2  0
  2  4  1  0
  5  4  1  1
  5  6  1  0
  6  7  1  0
  7  8  1  0
  8  9  1  1
  8 10  1  0
 10 11  1  1
 11 12  1  0
 12 13  1  0
 13 14  1  1
 13 15  1  0
 15 16  1  1
 16 17  2  0
 16 18  1  0
 18 19  2  0
 19 20  1  0
 20 21  1  6
 21 22  1  0
 22 23  1  6
 22 24  1  0
 24 25  1  0
 25 26  1  0
 26 27  1  1
 26 28  1  0
 28 29  1  0
 29 30  1  0
 30 31  1  6
 22 32  1  0
 32 33  1  0
 32 34  2  0
 10 35  1  0
 35 36  1  0
 35 37  1  0
 35  5  1  0
 15  8  1  0
 30 19  1  0
 30 13  1  0
 26 20  1  0
M  END
$$$$
