
     RDKit          3D

 37 41  0  0  0  0  0  0  0  0999 V2000
  149.1456  170.1329  124.4379 C   0  0  0  0  0  0  0  0  0  0  0  0
  149.5360  168.7322  124.0747 C   0  0  0  0  0  0  0  0  0  0  0  0
  149.9160  168.4106  122.9229 O   0  0  0  0  0  0  0  0  0  0  0  0
  149.4981  167.7035  125.0023 O   0  0  0  0  0  0  0  0  0  0  0  0
  149.0989  167.8920  126.3107 C   0  0  1  0  0  0  0  0  0  0  0  0
  149.0578  169.2931  126.7928 C   0  0  0  0  0  0  0  0  0  0  0  0
  148.9215  169.3360  128.2987 C   0  0  0  0  0  0  0  0  0  0  0  0
  147.7371  168.5459  128.8013 C   0  0  1  0  0  0  0  0  0  0  0  0
  146.5327  169.4472  128.6546 C   0  0  0  0  0  0  0  0  0  0  0  0
  147.5775  167.2346  128.0773 C   0  0  1  0  0  0  0  0  0  0  0  0
  146.3126  166.5547  128.5417 C   0  0  0  0  0  0  0  0  0  0  0  0
  146.3848  166.2445  130.0084 C   0  0  0  0  0  0  0  0  0  0  0  0
  146.9629  167.2951  130.8633 C   0  0  2  0  0  0  0  0  0  0  0  0
  145.8726  168.2022  131.4309 C   0  0  0  0  0  0  0  0  0  0  0  0
  148.0145  168.1629  130.2284 C   0  0  2  0  0  0  0  0  0  0  0  0
  148.3219  169.2469  131.1533 C   0  0  0  0  0  0  0  0  0  0  0  0
  148.7329  170.3938  130.8498 O   0  0  0  0  0  0  0  0  0  0  0  0
  148.1339  168.9740  132.5752 C   0  0  0  0  0  0  0  0  0  0  0  0
  147.8146  167.7765  133.0538 C   0  0  0  0  0  0  0  0  0  0  0  0
  147.6553  167.6402  134.5079 C   0  0  2  0  0  0  0  0  0  0  0  0
  148.9987  167.7526  135.2423 C   0  0  0  0  0  0  0  0  0  0  0  0
  148.7212  168.0451  136.7073 C   0  0  2  0  0  0  0  0  0  0  0  0
  150.0027  167.7705  137.4942 C   0  0  0  0  0  0  0  0  0  0  0  0
  147.6633  167.1334  137.2671 C   0  0  0  0  0  0  0  0  0  0  0  0
  147.5148  165.9630  136.3505 C   0  0  0  0  0  0  0  0  0  0  0  0
  146.9842  166.4054  134.9749 C   0  0  1  0  0  0  0  0  0  0  0  0
  145.5002  166.6806  135.1899 C   0  0  0  0  0  0  0  0  0  0  0  0
  147.1518  165.2290  134.0802 C   0  0  0  0  0  0  0  0  0  0  0  0
  146.7566  165.5697  132.6667 C   0  0  0  0  0  0  0  0  0  0  0  0
  147.6410  166.6656  132.0846 C   0  0  1  0  0  0  0  0  0  0  0  0
  148.9448  165.9965  131.7086 C   0  0  0  0  0  0  0  0  0  0  0  0
  148.3126  169.4394  136.9222 C   0  0  0  0  0  0  0  0  0  0  0  0
  147.7939  170.2241  135.8960 O   0  0  0  0  0  0  0  0  0  0  0  0
  148.4152  169.9855  138.0499 O   0  0  0  0  0  0  0  0  0  0  0  0
  147.7347  167.2649  126.6074 C   0  0  0  0  0  0  0  0  0  0  0  0
  147.8885  165.8002  126.1582 C   0  0  0  0  0  0  0  0  0  0  0  0
  146.6333  167.8479  125.8179 C   0  0  0  0  0  0  0  0  0  0  0  0
  1  2  1  0
  2  3  2  0
  2  4  1  0
  5  4  1  6
  5  6  1  0
  6  7  1  0
  7  8  1  0
  8  9  1  1
  8 10  1  0
 10 11  1  6
 11 12  1  0
 12 13  1  0
 13 14  1  1
 13 15  1  0
 15 16  1  1
 16 17  2  0
 16 18  1  0
 18 19  2  0
 19 20  1  0
 20 21  1  1
 21 22  1  0
 22 23  1  1
 22 24  1  0
 24 25  1  0
 25 26  1  0
 26 27  1  1
 26 28  1  0
 28 29  1  0
 29 30  1  0
 30 31  1  6
 22 32  1  0
 32 33  1  0
 32 34  2  0
 10 35  1  0
 35 36  1  0
 35 37  1  0
 35  5  1  0
 15  8  1  0
 30 19  1  0
 30 13  1  0
 26 20  1  0
M  END
$$$$
