
 OpenBabel01122422353D

 47 50  0  0  0  0  0  0  0  0999 V2000
    0.9376    0.2301   -0.0529 O   0  0  0  0  0  0  0  0  0  0  0  0
    2.1490    0.0658   -0.1240 C   0  0  0  0  0  0  0  0  0  0  0  0
    2.8099   -1.0766   -0.5510 N   0  0  0  0  0  0  0  0  0  0  0  0
    2.1779   -2.2531   -1.0124 C   0  0  0  0  0  0  0  0  0  0  0  0
    0.8341   -2.2945   -1.3816 C   0  0  0  0  0  0  0  0  0  0  0  0
    0.2295   -3.4975   -1.7524 C   0  0  0  0  0  0  0  0  0  0  0  0
    0.9577   -4.6902   -1.7766 C   0  0  0  0  0  0  0  0  0  0  0  0
    0.2846   -5.9478   -2.0949 C   0  0  0  0  0  0  0  0  0  0  0  0
   -0.7805   -6.1537   -2.8906 C   0  0  0  0  0  0  0  0  0  0  0  0
   -1.1044   -7.4859   -2.8604 N   0  0  0  0  0  0  0  0  0  0  0  0
   -0.2198   -8.1548   -2.0078 C   0  0  0  0  0  0  0  0  0  0  0  0
   -0.2139   -9.3359   -1.7201 O   0  0  0  0  0  0  0  0  0  0  0  0
    0.6493   -7.1578   -1.5529 N   0  0  0  0  0  0  0  0  0  0  0  0
    2.3207   -4.6400   -1.4521 C   0  0  0  0  0  0  0  0  0  0  0  0
    2.9292   -3.4299   -1.0839 C   0  0  0  0  0  0  0  0  0  0  0  0
    3.0106    1.1771    0.3464 C   0  0  0  0  0  0  0  0  0  0  0  0
    2.5496    1.9547    1.4166 C   0  0  0  0  0  0  0  0  0  0  0  0
    3.2715    3.0721    1.8339 C   0  0  0  0  0  0  0  0  0  0  0  0
    4.4543    3.4261    1.1763 C   0  0  0  0  0  0  0  0  0  0  0  0
    5.1592    4.6573    1.6209 C   0  0  0  0  0  0  0  0  0  0  0  0
    5.0790    4.9922    2.8002 O   0  0  0  0  0  0  0  0  0  0  0  0
    5.9536    5.4934    0.6816 C   0  0  0  0  0  0  0  0  0  0  0  0
    5.6330    5.5955   -0.6791 C   0  0  0  0  0  0  0  0  0  0  0  0
    6.4398    6.3636   -1.5133 C   0  0  0  0  0  0  0  0  0  0  0  0
    6.1943    6.4551   -2.8515 O   0  0  0  0  0  0  0  0  0  0  0  0
    7.5304    7.0626   -1.0086 C   0  0  0  0  0  0  0  0  0  0  0  0
    7.8233    7.0001    0.3528 C   0  0  0  0  0  0  0  0  0  0  0  0
    7.0365    6.2168    1.1980 C   0  0  0  0  0  0  0  0  0  0  0  0
    4.9402    2.6190    0.1364 C   0  0  0  0  0  0  0  0  0  0  0  0
    4.2108    1.5057   -0.2929 C   0  0  0  0  0  0  0  0  0  0  0  0
    3.8034   -1.1413   -0.3688 H   0  0  0  0  0  0  0  0  0  0  0  0
    0.2141   -1.4035   -1.3864 H   0  0  0  0  0  0  0  0  0  0  0  0
   -0.8312   -3.4811   -1.9915 H   0  0  0  0  0  0  0  0  0  0  0  0
   -1.3483   -5.4466   -3.4755 H   0  0  0  0  0  0  0  0  0  0  0  0
   -1.8686   -7.9390   -3.3379 H   0  0  0  0  0  0  0  0  0  0  0  0
    1.3756   -7.3255   -0.8769 H   0  0  0  0  0  0  0  0  0  0  0  0
    2.9270   -5.5425   -1.4782 H   0  0  0  0  0  0  0  0  0  0  0  0
    3.9847   -3.4360   -0.8243 H   0  0  0  0  0  0  0  0  0  0  0  0
    1.6159    1.6999    1.9156 H   0  0  0  0  0  0  0  0  0  0  0  0
    2.8988    3.6735    2.6616 H   0  0  0  0  0  0  0  0  0  0  0  0
    4.7633    5.0895   -1.0841 H   0  0  0  0  0  0  0  0  0  0  0  0
    5.3984    5.9431   -3.0700 H   0  0  0  0  0  0  0  0  0  0  0  0
    8.1450    7.6643   -1.6727 H   0  0  0  0  0  0  0  0  0  0  0  0
    8.6633    7.5602    0.7555 H   0  0  0  0  0  0  0  0  0  0  0  0
    7.2695    6.1707    2.2606 H   0  0  0  0  0  0  0  0  0  0  0  0
    5.8788    2.8513   -0.3608 H   0  0  0  0  0  0  0  0  0  0  0  0
    4.5667    0.9351   -1.1469 H   0  0  0  0  0  0  0  0  0  0  0  0
  1  2  2  0  0  0  0
  2  3  1  0  0  0  0
  2 16  1  0  0  0  0
  3  4  1  0  0  0  0
  3 31  1  0  0  0  0
  4  5  2  0  0  0  0
  4 15  1  0  0  0  0
  5  6  1  0  0  0  0
  5 32  1  0  0  0  0
  6  7  2  0  0  0  0
  6 33  1  0  0  0  0
  7  8  1  0  0  0  0
  7 14  1  0  0  0  0
  8  9  2  0  0  0  0
  8 13  1  0  0  0  0
  9 10  1  0  0  0  0
  9 34  1  0  0  0  0
 10 11  1  0  0  0  0
 10 35  1  0  0  0  0
 11 12  2  0  0  0  0
 11 13  1  0  0  0  0
 13 36  1  0  0  0  0
 14 15  2  0  0  0  0
 14 37  1  0  0  0  0
 15 38  1  0  0  0  0
 16 17  2  0  0  0  0
 16 30  1  0  0  0  0
 17 18  1  0  0  0  0
 17 39  1  0  0  0  0
 18 19  2  0  0  0  0
 18 40  1  0  0  0  0
 19 20  1  0  0  0  0
 19 29  1  0  0  0  0
 20 21  2  0  0  0  0
 20 22  1  0  0  0  0
 22 23  2  0  0  0  0
 22 28  1  0  0  0  0
 23 24  1  0  0  0  0
 23 41  1  0  0  0  0
 24 25  1  0  0  0  0
 24 26  2  0  0  0  0
 25 42  1  0  0  0  0
 26 27  1  0  0  0  0
 26 43  1  0  0  0  0
 27 28  2  0  0  0  0
 27 44  1  0  0  0  0
 28 45  1  0  0  0  0
 29 30  2  0  0  0  0
 29 46  1  0  0  0  0
 30 47  1  0  0  0  0
M  END
$$$$
