
 OpenBabel01122422353D

 46 49  0  0  0  0  0  0  0  0999 V2000
   -1.5673    2.0114   -2.9775 N   0  0  0  0  0  0  0  0  0  0  0  0
   -0.6781    1.3214   -2.6894 C   0  0  0  0  0  0  0  0  0  0  0  0
    0.4089    0.4619   -2.3417 C   0  0  0  0  0  0  0  0  0  0  0  0
    0.1753   -0.8982   -2.1036 C   0  0  0  0  0  0  0  0  0  0  0  0
    1.2351   -1.7484   -1.7615 C   0  0  0  0  0  0  0  0  0  0  0  0
    1.0021   -3.2156   -1.5447 C   0  0  0  0  0  0  0  0  0  0  0  0
    1.4958   -3.5841   -0.2535 O   0  0  0  0  0  0  0  0  0  0  0  0
    1.7672   -4.9159   -0.1006 C   0  0  0  0  0  0  0  0  0  0  0  0
    2.6803   -5.2414    0.9036 C   0  0  0  0  0  0  0  0  0  0  0  0
    3.0527   -6.5736    1.1197 C   0  0  0  0  0  0  0  0  0  0  0  0
    2.5141   -7.5806    0.3211 C   0  0  0  0  0  0  0  0  0  0  0  0
    2.8631   -8.9372    0.4181 N   0  0  0  0  0  0  0  0  0  0  0  0
    3.4866   -9.5732    1.4733 C   0  0  0  0  0  0  0  0  0  0  0  0
    3.7271   -9.1080    2.5746 O   0  0  0  0  0  0  0  0  0  0  0  0
    3.9648  -10.9385    1.1121 C   0  0  0  0  0  0  0  0  0  0  0  0
    3.1737  -11.7764    0.3116 C   0  0  0  0  0  0  0  0  0  0  0  0
    3.7673  -12.7799   -0.4446 C   0  0  0  0  0  0  0  0  0  0  0  0
    5.1637  -12.8799   -0.4935 C   0  0  0  0  0  0  0  0  0  0  0  0
    5.9409  -12.0416    0.3300 C   0  0  0  0  0  0  0  0  0  0  0  0
    5.3333  -11.1812    1.2241 C   0  0  0  0  0  0  0  0  0  0  0  0
    6.1992  -10.5009    2.1862 C   0  0  0  0  0  0  0  0  0  0  0  0
    7.4675  -10.3295    1.9894 N   0  0  0  0  0  0  0  0  0  0  0  0
    7.9902  -10.8743    0.8548 N   0  0  0  0  0  0  0  0  0  0  0  0
    7.3805  -11.8538    0.0920 C   0  0  0  0  0  0  0  0  0  0  0  0
    7.9636  -12.4656   -0.7934 O   0  0  0  0  0  0  0  0  0  0  0  0
    1.5990   -7.2497   -0.6822 C   0  0  0  0  0  0  0  0  0  0  0  0
    1.1997   -5.9293   -0.8694 C   0  0  0  0  0  0  0  0  0  0  0  0
    2.5301   -1.2222   -1.6659 C   0  0  0  0  0  0  0  0  0  0  0  0
    2.7678    0.1339   -1.9061 C   0  0  0  0  0  0  0  0  0  0  0  0
    1.7073    0.9704   -2.2404 C   0  0  0  0  0  0  0  0  0  0  0  0
   -0.8357   -1.2950   -2.1867 H   0  0  0  0  0  0  0  0  0  0  0  0
    1.5267   -3.7532   -2.3471 H   0  0  0  0  0  0  0  0  0  0  0  0
   -0.0696   -3.4488   -1.5945 H   0  0  0  0  0  0  0  0  0  0  0  0
    3.1226   -4.4541    1.5099 H   0  0  0  0  0  0  0  0  0  0  0  0
    3.7959   -6.7893    1.8832 H   0  0  0  0  0  0  0  0  0  0  0  0
    2.6431   -9.4841   -0.4037 H   0  0  0  0  0  0  0  0  0  0  0  0
    2.1009  -11.6131    0.2264 H   0  0  0  0  0  0  0  0  0  0  0  0
    3.1660  -13.4230   -1.0910 H   0  0  0  0  0  0  0  0  0  0  0  0
    5.6484  -13.5595   -1.1878 H   0  0  0  0  0  0  0  0  0  0  0  0
    5.7659  -10.1596    3.1360 H   0  0  0  0  0  0  0  0  0  0  0  0
    8.9639  -10.6557    0.6580 H   0  0  0  0  0  0  0  0  0  0  0  0
    1.1584   -8.0182   -1.3111 H   0  0  0  0  0  0  0  0  0  0  0  0
    0.4451   -5.7263   -1.6214 H   0  0  0  0  0  0  0  0  0  0  0  0
    3.3656   -1.8734   -1.4074 H   0  0  0  0  0  0  0  0  0  0  0  0
    3.7767    0.5265   -1.8265 H   0  0  0  0  0  0  0  0  0  0  0  0
    1.8987    2.0263   -2.4224 H   0  0  0  0  0  0  0  0  0  0  0  0
  1  2  3  0  0  0  0
  2  3  1  0  0  0  0
  3  4  2  0  0  0  0
  3 30  1  0  0  0  0
  4  5  1  0  0  0  0
  4 31  1  0  0  0  0
  5  6  1  0  0  0  0
  5 28  2  0  0  0  0
  6  7  1  0  0  0  0
  6 32  1  0  0  0  0
  6 33  1  0  0  0  0
  7  8  1  0  0  0  0
  8  9  2  0  0  0  0
  8 27  1  0  0  0  0
  9 10  1  0  0  0  0
  9 34  1  0  0  0  0
 10 11  2  0  0  0  0
 10 35  1  0  0  0  0
 11 12  1  0  0  0  0
 11 26  1  0  0  0  0
 12 13  1  0  0  0  0
 12 36  1  0  0  0  0
 13 14  2  0  0  0  0
 13 15  1  0  0  0  0
 15 16  2  0  0  0  0
 15 20  1  0  0  0  0
 16 17  1  0  0  0  0
 16 37  1  0  0  0  0
 17 18  2  0  0  0  0
 17 38  1  0  0  0  0
 18 19  1  0  0  0  0
 18 39  1  0  0  0  0
 19 20  2  0  0  0  0
 19 24  1  0  0  0  0
 20 21  1  0  0  0  0
 21 22  2  0  0  0  0
 21 40  1  0  0  0  0
 22 23  1  0  0  0  0
 23 24  1  0  0  0  0
 23 41  1  0  0  0  0
 24 25  2  0  0  0  0
 26 27  2  0  0  0  0
 26 42  1  0  0  0  0
 27 43  1  0  0  0  0
 28 29  1  0  0  0  0
 28 44  1  0  0  0  0
 29 30  2  0  0  0  0
 29 45  1  0  0  0  0
 30 46  1  0  0  0  0
M  END
$$$$
