
 OpenBabel01122422423D

 49 52  0  0  0  0  0  0  0  0999 V2000
   -2.3481   -1.1604   -0.3428 C   0  0  0  0  0  0  0  0  0  0  0  0
   -1.0955   -0.5094    0.0020 N   0  0  0  0  0  0  0  0  0  0  0  0
    0.1473   -1.1270    0.1212 C   0  0  0  0  0  0  0  0  0  0  0  0
    0.4629   -2.5413   -0.0657 C   0  0  0  0  0  0  0  0  0  0  0  0
   -0.3160   -3.3830   -0.5010 O   0  0  0  0  0  0  0  0  0  0  0  0
    1.7521   -2.8638    0.2899 N   0  0  0  0  0  0  0  0  0  0  0  0
    2.3038   -4.1786    0.0958 C   0  0  0  0  0  0  0  0  0  0  0  0
    3.7937   -4.1625    0.2785 C   0  0  0  0  0  0  0  0  0  0  0  0
    4.6344   -3.0841    0.4833 C   0  0  0  0  0  0  0  0  0  0  0  0
    5.8859   -3.5914    0.6445 N   0  0  0  0  0  0  0  0  0  0  0  0
    5.9395   -4.9206    0.5456 N   0  0  0  0  0  0  0  0  0  0  0  0
    4.6766   -5.3018    0.2868 C   0  0  0  0  0  0  0  0  0  0  0  0
    4.3658   -6.7214    0.0741 C   0  0  0  0  0  0  0  0  0  0  0  0
    5.0957   -7.7126    0.7471 C   0  0  0  0  0  0  0  0  0  0  0  0
    4.8106   -9.0677    0.5524 C   0  0  0  0  0  0  0  0  0  0  0  0
    3.7886   -9.4479   -0.3143 C   0  0  0  0  0  0  0  0  0  0  0  0
    3.0669   -8.4771   -1.0018 C   0  0  0  0  0  0  0  0  0  0  0  0
    3.3652   -7.1248   -0.8191 C   0  0  0  0  0  0  0  0  0  0  0  0
    1.0477   -0.1061    0.4060 C   0  0  0  0  0  0  0  0  0  0  0  0
    0.3475    1.1036    0.5202 C   0  0  0  0  0  0  0  0  0  0  0  0
   -0.9799    0.8610    0.2215 C   0  0  0  0  0  0  0  0  0  0  0  0
   -2.0656    1.8331    0.1583 C   0  0  0  0  0  0  0  0  0  0  0  0
   -3.2301    1.5516    0.4372 O   0  0  0  0  0  0  0  0  0  0  0  0
   -1.7760    3.2436   -0.2286 C   0  0  0  0  0  0  0  0  0  0  0  0
   -2.5173    4.2782    0.3609 C   0  0  0  0  0  0  0  0  0  0  0  0
   -2.2919    5.6082   -0.0111 C   0  0  0  0  0  0  0  0  0  0  0  0
   -1.3247    5.9148   -0.9687 C   0  0  0  0  0  0  0  0  0  0  0  0
   -0.5873    4.8921   -1.5606 C   0  0  0  0  0  0  0  0  0  0  0  0
   -0.8258    3.5664   -1.2016 C   0  0  0  0  0  0  0  0  0  0  0  0
   -0.1319    2.6173   -1.8448 F   0  0  0  0  0  0  0  0  0  0  0  0
   -2.1750   -2.1013   -0.8598 H   0  0  0  0  0  0  0  0  0  0  0  0
   -2.9106   -0.5159   -1.0242 H   0  0  0  0  0  0  0  0  0  0  0  0
   -2.9096   -1.3293    0.5797 H   0  0  0  0  0  0  0  0  0  0  0  0
    2.2382   -2.2412    0.9118 H   0  0  0  0  0  0  0  0  0  0  0  0
    2.0382   -4.4994   -0.9149 H   0  0  0  0  0  0  0  0  0  0  0  0
    1.8327   -4.8509    0.8200 H   0  0  0  0  0  0  0  0  0  0  0  0
    4.4617   -2.0193    0.5358 H   0  0  0  0  0  0  0  0  0  0  0  0
    6.7488   -3.0893    0.8284 H   0  0  0  0  0  0  0  0  0  0  0  0
    5.9002   -7.4324    1.4251 H   0  0  0  0  0  0  0  0  0  0  0  0
    5.3896   -9.8234    1.0763 H   0  0  0  0  0  0  0  0  0  0  0  0
    3.5622  -10.4997   -0.4626 H   0  0  0  0  0  0  0  0  0  0  0  0
    2.2769   -8.7679   -1.6891 H   0  0  0  0  0  0  0  0  0  0  0  0
    2.8166   -6.4041   -1.4145 H   0  0  0  0  0  0  0  0  0  0  0  0
    2.1184   -0.2105    0.5156 H   0  0  0  0  0  0  0  0  0  0  0  0
    0.7816    2.0670    0.7541 H   0  0  0  0  0  0  0  0  0  0  0  0
   -3.2777    4.0513    1.1064 H   0  0  0  0  0  0  0  0  0  0  0  0
   -2.8787    6.4054    0.4403 H   0  0  0  0  0  0  0  0  0  0  0  0
   -1.1561    6.9479   -1.2648 H   0  0  0  0  0  0  0  0  0  0  0  0
    0.1617    5.1133   -2.3150 H   0  0  0  0  0  0  0  0  0  0  0  0
  1  2  1  0  0  0  0
  1 31  1  0  0  0  0
  1 32  1  0  0  0  0
  1 33  1  0  0  0  0
  2  3  1  0  0  0  0
  2 21  1  0  0  0  0
  3  4  1  0  0  0  0
  3 19  2  0  0  0  0
  4  5  2  0  0  0  0
  4  6  1  0  0  0  0
  6  7  1  0  0  0  0
  6 34  1  0  0  0  0
  7  8  1  0  0  0  0
  7 35  1  0  0  0  0
  7 36  1  0  0  0  0
  8  9  2  0  0  0  0
  8 12  1  0  0  0  0
  9 10  1  0  0  0  0
  9 37  1  0  0  0  0
 10 11  1  0  0  0  0
 10 38  1  0  0  0  0
 11 12  2  0  0  0  0
 12 13  1  0  0  0  0
 13 14  2  0  0  0  0
 13 18  1  0  0  0  0
 14 15  1  0  0  0  0
 14 39  1  0  0  0  0
 15 16  2  0  0  0  0
 15 40  1  0  0  0  0
 16 17  1  0  0  0  0
 16 41  1  0  0  0  0
 17 18  2  0  0  0  0
 17 42  1  0  0  0  0
 18 43  1  0  0  0  0
 19 20  1  0  0  0  0
 19 44  1  0  0  0  0
 20 21  2  0  0  0  0
 20 45  1  0  0  0  0
 21 22  1  0  0  0  0
 22 23  2  0  0  0  0
 22 24  1  0  0  0  0
 24 25  2  0  0  0  0
 24 29  1  0  0  0  0
 25 26  1  0  0  0  0
 25 46  1  0  0  0  0
 26 27  2  0  0  0  0
 26 47  1  0  0  0  0
 27 28  1  0  0  0  0
 27 48  1  0  0  0  0
 28 29  2  0  0  0  0
 28 49  1  0  0  0  0
 29 30  1  0  0  0  0
M  END
$$$$
