
 OpenBabel01122422353D

 47 50  0  0  0  0  0  0  0  0999 V2000
    0.5429    3.3954   -1.0325 C   0  0  0  0  0  0  0  0  0  0  0  0
    1.2568    2.2081   -1.4352 N   0  0  0  0  0  0  0  0  0  0  0  0
    2.0110    1.3881   -0.6440 C   0  0  0  0  0  0  0  0  0  0  0  0
    2.4786    0.3803   -1.4632 C   0  0  0  0  0  0  0  0  0  0  0  0
    3.3311   -0.7219   -1.0515 C   0  0  0  0  0  0  0  0  0  0  0  0
    3.2232   -1.9682   -1.6855 C   0  0  0  0  0  0  0  0  0  0  0  0
    4.0679   -3.0267   -1.3292 C   0  0  0  0  0  0  0  0  0  0  0  0
    5.0530   -2.8412   -0.3575 C   0  0  0  0  0  0  0  0  0  0  0  0
    5.1781   -1.5982    0.2705 C   0  0  0  0  0  0  0  0  0  0  0  0
    6.2235   -1.3368    1.2955 C   0  0  0  0  0  0  0  0  0  0  0  0
    5.9738   -0.5807    2.2277 O   0  0  0  0  0  0  0  0  0  0  0  0
    7.4883   -1.8721    1.0408 N   0  0  0  0  0  0  0  0  0  0  0  0
    8.5795   -1.6180    1.8676 C   0  0  0  0  0  0  0  0  0  0  0  0
    8.6071   -1.8082    3.2064 C   0  0  0  0  0  0  0  0  0  0  0  0
    7.4017   -2.4122    3.9082 C   0  0  0  0  0  0  0  0  0  0  0  0
    6.4017   -2.9133    4.4905 N   0  0  0  0  0  0  0  0  0  0  0  0
    9.7510   -1.3412    4.0345 C   0  0  0  0  0  0  0  0  0  0  0  0
    9.7419   -1.5435    5.2484 O   0  0  0  0  0  0  0  0  0  0  0  0
   10.7968   -0.7098    3.3251 N   0  0  0  0  0  0  0  0  0  0  0  0
   11.9222   -0.2110    4.0557 C   0  0  0  0  0  0  0  0  0  0  0  0
   13.2214   -0.4853    3.6071 C   0  0  0  0  0  0  0  0  0  0  0  0
   14.3284   -0.0149    4.3140 C   0  0  0  0  0  0  0  0  0  0  0  0
   14.1473    0.7657    5.4526 C   0  0  0  0  0  0  0  0  0  0  0  0
   12.8598    1.0619    5.8973 C   0  0  0  0  0  0  0  0  0  0  0  0
   11.7502    0.5637    5.2100 C   0  0  0  0  0  0  0  0  0  0  0  0
   10.7649   -0.6018    1.9396 C   0  0  0  0  0  0  0  0  0  0  0  0
    9.7344   -1.0487    1.2136 C   0  0  0  0  0  0  0  0  0  0  0  0
    4.3021   -0.5530   -0.0576 C   0  0  0  0  0  0  0  0  0  0  0  0
    1.9426    0.7000   -2.7329 C   0  0  0  0  0  0  0  0  0  0  0  0
    1.2021    1.8108   -2.7191 N   0  0  0  0  0  0  0  0  0  0  0  0
    0.7815    3.6307    0.0073 H   0  0  0  0  0  0  0  0  0  0  0  0
   -0.5277    3.2023   -1.1372 H   0  0  0  0  0  0  0  0  0  0  0  0
    0.8485    4.2214   -1.6804 H   0  0  0  0  0  0  0  0  0  0  0  0
    2.1355    1.5835    0.4123 H   0  0  0  0  0  0  0  0  0  0  0  0
    2.4599   -2.1403   -2.4454 H   0  0  0  0  0  0  0  0  0  0  0  0
    3.9468   -3.9947   -1.8107 H   0  0  0  0  0  0  0  0  0  0  0  0
    5.6865   -3.6776   -0.0760 H   0  0  0  0  0  0  0  0  0  0  0  0
    7.6736   -2.0201    0.0562 H   0  0  0  0  0  0  0  0  0  0  0  0
   13.3842   -1.1185    2.7399 H   0  0  0  0  0  0  0  0  0  0  0  0
   15.3308   -0.2716    3.9819 H   0  0  0  0  0  0  0  0  0  0  0  0
   15.0096    1.1353    6.0007 H   0  0  0  0  0  0  0  0  0  0  0  0
   12.7171    1.6774    6.7819 H   0  0  0  0  0  0  0  0  0  0  0  0
   10.7542    0.8134    5.5715 H   0  0  0  0  0  0  0  0  0  0  0  0
   11.5910   -0.0821    1.4608 H   0  0  0  0  0  0  0  0  0  0  0  0
    9.7245   -0.8922    0.1395 H   0  0  0  0  0  0  0  0  0  0  0  0
    4.4056    0.4020    0.4545 H   0  0  0  0  0  0  0  0  0  0  0  0
    2.0690    0.1729   -3.6692 H   0  0  0  0  0  0  0  0  0  0  0  0
  1  2  1  0  0  0  0
  1 31  1  0  0  0  0
  1 32  1  0  0  0  0
  1 33  1  0  0  0  0
  2  3  1  0  0  0  0
  2 30  1  0  0  0  0
  3  4  2  0  0  0  0
  3 34  1  0  0  0  0
  4  5  1  0  0  0  0
  4 29  1  0  0  0  0
  5  6  2  0  0  0  0
  5 28  1  0  0  0  0
  6  7  1  0  0  0  0
  6 35  1  0  0  0  0
  7  8  2  0  0  0  0
  7 36  1  0  0  0  0
  8  9  1  0  0  0  0
  8 37  1  0  0  0  0
  9 10  1  0  0  0  0
  9 28  2  0  0  0  0
 10 11  2  0  0  0  0
 10 12  1  0  0  0  0
 12 13  1  0  0  0  0
 12 38  1  0  0  0  0
 13 14  2  0  0  0  0
 13 27  1  0  0  0  0
 14 15  1  0  0  0  0
 14 17  1  0  0  0  0
 15 16  3  0  0  0  0
 17 18  2  0  0  0  0
 17 19  1  0  0  0  0
 19 20  1  0  0  0  0
 19 26  1  0  0  0  0
 20 21  2  0  0  0  0
 20 25  1  0  0  0  0
 21 22  1  0  0  0  0
 21 39  1  0  0  0  0
 22 23  2  0  0  0  0
 22 40  1  0  0  0  0
 23 24  1  0  0  0  0
 23 41  1  0  0  0  0
 24 25  2  0  0  0  0
 24 42  1  0  0  0  0
 25 43  1  0  0  0  0
 26 27  2  0  0  0  0
 26 44  1  0  0  0  0
 27 45  1  0  0  0  0
 28 46  1  0  0  0  0
 29 30  2  0  0  0  0
 29 47  1  0  0  0  0
M  END
$$$$
