
 OpenBabel01122422353D

 53 56  0  0  1  0  0  0  0  0999 V2000
    2.1200   -1.8961   -0.7874 C   0  0  0  0  0  0  0  0  0  0  0  0
    2.3424   -0.7792    0.0639 O   0  0  0  0  0  0  0  0  0  0  0  0
    2.9982   -1.0151    1.2398 C   0  0  0  0  0  0  0  0  0  0  0  0
    3.4379   -2.2538    1.7047 C   0  0  0  0  0  0  0  0  0  0  0  0
    4.1079   -2.3460    2.9317 C   0  0  0  0  0  0  0  0  0  0  0  0
    4.3316   -1.2013    3.7081 C   0  0  0  0  0  0  0  0  0  0  0  0
    5.0622   -1.3475    4.9989 C   0  0  0  0  0  0  0  0  0  0  0  0
    5.8279   -2.2873    5.1638 O   0  0  0  0  0  0  0  0  0  0  0  0
    4.8034   -0.3976    5.9644 N   0  0  0  0  0  0  0  0  0  0  0  0
    5.5258   -0.4005    7.2318 C   0  0  3  0  0  0  0  0  0  0  0  0
    5.7480    1.0659    7.6948 C   0  0  0  0  0  0  0  0  0  0  0  0
    6.7037    1.6996    7.2391 O   0  0  0  0  0  0  0  0  0  0  0  0
    4.7662    1.6141    8.5242 N   0  0  0  0  0  0  0  0  0  0  0  0
    4.7612    2.9374    9.0316 C   0  0  0  0  0  0  0  0  0  0  0  0
    5.5438    3.9609    8.4927 C   0  0  0  0  0  0  0  0  0  0  0  0
    5.5866    5.2253    9.0849 C   0  0  0  0  0  0  0  0  0  0  0  0
    4.8330    5.5052   10.2294 C   0  0  0  0  0  0  0  0  0  0  0  0
    4.9518    6.8037   10.8825 C   0  0  0  0  0  0  0  0  0  0  0  0
    3.9640    7.3652   11.6014 N   0  0  0  0  0  0  0  0  0  0  0  0
    4.5202    8.5277   11.9848 N   0  0  0  0  0  0  0  0  0  0  0  0
    5.7835    8.7801   11.6117 N   0  0  0  0  0  0  0  0  0  0  0  0
    6.0671    7.6796   10.9099 C   0  0  0  0  0  0  0  0  0  0  0  0
    3.9899    4.5050   10.7309 C   0  0  0  0  0  0  0  0  0  0  0  0
    3.9503    3.2327   10.1341 C   0  0  0  0  0  0  0  0  0  0  0  0
    4.8962   -1.2884    8.2897 C   0  0  0  0  0  0  0  0  0  0  0  0
    5.7248   -1.8521    9.2749 C   0  0  0  0  0  0  0  0  0  0  0  0
    5.1825   -2.6084   10.3112 C   0  0  0  0  0  0  0  0  0  0  0  0
    3.8052   -2.8059   10.3801 C   0  0  0  0  0  0  0  0  0  0  0  0
    2.9738   -2.2708    9.3982 C   0  0  0  0  0  0  0  0  0  0  0  0
    3.5144   -1.5216    8.3539 C   0  0  0  0  0  0  0  0  0  0  0  0
    3.9040    0.0420    3.2339 C   0  0  0  0  0  0  0  0  0  0  0  0
    3.2354    0.1279    2.0096 C   0  0  0  0  0  0  0  0  0  0  0  0
    1.6397   -1.5289   -1.7000 H   0  0  0  0  0  0  0  0  0  0  0  0
    1.4416   -2.6162   -0.3188 H   0  0  0  0  0  0  0  0  0  0  0  0
    3.0632   -2.3704   -1.0776 H   0  0  0  0  0  0  0  0  0  0  0  0
    3.2834   -3.1673    1.1387 H   0  0  0  0  0  0  0  0  0  0  0  0
    4.4583   -3.3164    3.2794 H   0  0  0  0  0  0  0  0  0  0  0  0
    4.1023    0.3118    5.8183 H   0  0  0  0  0  0  0  0  0  0  0  0
    6.5291   -0.7987    7.0285 H   0  0  0  0  0  0  0  0  0  0  0  0
    4.1140    0.9714    8.9578 H   0  0  0  0  0  0  0  0  0  0  0  0
    6.1428    3.8109    7.6006 H   0  0  0  0  0  0  0  0  0  0  0  0
    6.2230    5.9811    8.6325 H   0  0  0  0  0  0  0  0  0  0  0  0
    3.9995    9.1985   12.5434 H   0  0  0  0  0  0  0  0  0  0  0  0
    7.0458    7.5599   10.4675 H   0  0  0  0  0  0  0  0  0  0  0  0
    3.3803    4.7028   11.6112 H   0  0  0  0  0  0  0  0  0  0  0  0
    3.3075    2.4758   10.5774 H   0  0  0  0  0  0  0  0  0  0  0  0
    6.8043   -1.7099    9.2341 H   0  0  0  0  0  0  0  0  0  0  0  0
    5.8355   -3.0442   11.0634 H   0  0  0  0  0  0  0  0  0  0  0  0
    3.3823   -3.3871   11.1947 H   0  0  0  0  0  0  0  0  0  0  0  0
    1.9013   -2.4431    9.4441 H   0  0  0  0  0  0  0  0  0  0  0  0
    2.8470   -1.1267    7.5913 H   0  0  0  0  0  0  0  0  0  0  0  0
    4.1096    0.9598    3.7767 H   0  0  0  0  0  0  0  0  0  0  0  0
    2.9083    1.0977    1.6415 H   0  0  0  0  0  0  0  0  0  0  0  0
  1  2  1  0  0  0  0
  1 33  1  0  0  0  0
  1 34  1  0  0  0  0
  1 35  1  0  0  0  0
  2  3  1  0  0  0  0
  3  4  2  0  0  0  0
  3 32  1  0  0  0  0
  4  5  1  0  0  0  0
  4 36  1  0  0  0  0
  5  6  2  0  0  0  0
  5 37  1  0  0  0  0
  6  7  1  0  0  0  0
  6 31  1  0  0  0  0
  7  8  2  0  0  0  0
  7  9  1  0  0  0  0
  9 10  1  0  0  0  0
  9 38  1  0  0  0  0
 10 11  1  0  0  0  0
 10 25  1  0  0  0  0
 10 39  1  0  0  0  0
 11 12  2  0  0  0  0
 11 13  1  0  0  0  0
 13 14  1  0  0  0  0
 13 40  1  0  0  0  0
 14 15  2  0  0  0  0
 14 24  1  0  0  0  0
 15 16  1  0  0  0  0
 15 41  1  0  0  0  0
 16 17  2  0  0  0  0
 16 42  1  0  0  0  0
 17 18  1  0  0  0  0
 17 23  1  0  0  0  0
 18 19  2  0  0  0  0
 18 22  1  0  0  0  0
 19 20  1  0  0  0  0
 20 21  1  0  0  0  0
 20 43  1  0  0  0  0
 21 22  2  0  0  0  0
 22 44  1  0  0  0  0
 23 24  2  0  0  0  0
 23 45  1  0  0  0  0
 24 46  1  0  0  0  0
 25 26  2  0  0  0  0
 25 30  1  0  0  0  0
 26 27  1  0  0  0  0
 26 47  1  0  0  0  0
 27 28  2  0  0  0  0
 27 48  1  0  0  0  0
 28 29  1  0  0  0  0
 28 49  1  0  0  0  0
 29 30  2  0  0  0  0
 29 50  1  0  0  0  0
 30 51  1  0  0  0  0
 31 32  2  0  0  0  0
 31 52  1  0  0  0  0
 32 53  1  0  0  0  0
M  END
$$$$
