
 OpenBabel01122422353D

 47 50  0  0  0  0  0  0  0  0999 V2000
    1.1456   -0.1899    0.2894 O   0  0  0  0  0  0  0  0  0  0  0  0
    2.3264    0.0516    0.0721 C   0  0  0  0  0  0  0  0  0  0  0  0
    2.9975    1.2041    0.4201 N   0  0  0  0  0  0  0  0  0  0  0  0
    2.3647    2.2713    1.0619 C   0  0  0  0  0  0  0  0  0  0  0  0
    1.6697    2.1006    2.2565 C   0  0  0  0  0  0  0  0  0  0  0  0
    1.1393    3.2292    2.8967 C   0  0  0  0  0  0  0  0  0  0  0  0
    0.5215    3.1356    4.2736 C   0  0  0  0  0  0  0  0  0  0  0  0
    1.5165    3.3735    5.3929 C   0  0  0  0  0  0  0  0  0  0  0  0
    1.7475    4.6662    5.8872 C   0  0  0  0  0  0  0  0  0  0  0  0
    2.6914    4.8853    6.8958 C   0  0  0  0  0  0  0  0  0  0  0  0
    3.4129    3.8164    7.4220 C   0  0  0  0  0  0  0  0  0  0  0  0
    3.1907    2.5271    6.9414 C   0  0  0  0  0  0  0  0  0  0  0  0
    2.2503    2.3067    5.9332 C   0  0  0  0  0  0  0  0  0  0  0  0
    1.2571    4.4647    2.2557 C   0  0  0  0  0  0  0  0  0  0  0  0
    1.9578    4.5294    1.0623 C   0  0  0  0  0  0  0  0  0  0  0  0
    2.5604    3.4705    0.4823 N   0  0  0  0  0  0  0  0  0  0  0  0
    3.1354   -0.9301   -0.7002 C   0  0  0  0  0  0  0  0  0  0  0  0
    2.5489   -1.6084   -1.7746 C   0  0  0  0  0  0  0  0  0  0  0  0
    3.2693   -2.5911   -2.4657 C   0  0  0  0  0  0  0  0  0  0  0  0
    4.5714   -2.9233   -2.0673 C   0  0  0  0  0  0  0  0  0  0  0  0
    5.3580   -4.0077   -2.7311 C   0  0  0  0  0  0  0  0  0  0  0  0
    6.6561   -3.9297   -2.7501 N   0  0  0  0  0  0  0  0  0  0  0  0
    7.3319   -4.9501   -3.3637 N   0  0  0  0  0  0  0  0  0  0  0  0
    6.7683   -6.0478   -3.9515 C   0  0  0  0  0  0  0  0  0  0  0  0
    7.4256   -6.9321   -4.4987 O   0  0  0  0  0  0  0  0  0  0  0  0
    5.2987   -6.1233   -3.8915 C   0  0  0  0  0  0  0  0  0  0  0  0
    4.5982   -5.1503   -3.3024 C   0  0  0  0  0  0  0  0  0  0  0  0
    5.1625   -2.2192   -1.0063 C   0  0  0  0  0  0  0  0  0  0  0  0
    4.4498   -1.2261   -0.3245 C   0  0  0  0  0  0  0  0  0  0  0  0
    3.7223    1.5095   -0.2153 H   0  0  0  0  0  0  0  0  0  0  0  0
    1.5939    1.1182    2.7113 H   0  0  0  0  0  0  0  0  0  0  0  0
    0.0470    2.1547    4.4057 H   0  0  0  0  0  0  0  0  0  0  0  0
   -0.3011    3.8587    4.3583 H   0  0  0  0  0  0  0  0  0  0  0  0
    1.1970    5.5152    5.4903 H   0  0  0  0  0  0  0  0  0  0  0  0
    2.8660    5.8916    7.2683 H   0  0  0  0  0  0  0  0  0  0  0  0
    4.1504    3.9877    8.2029 H   0  0  0  0  0  0  0  0  0  0  0  0
    3.7543    1.6921    7.3519 H   0  0  0  0  0  0  0  0  0  0  0  0
    2.0950    1.2940    5.5687 H   0  0  0  0  0  0  0  0  0  0  0  0
    0.8322    5.3668    2.6829 H   0  0  0  0  0  0  0  0  0  0  0  0
    2.0633    5.4690    0.5280 H   0  0  0  0  0  0  0  0  0  0  0  0
    1.5293   -1.3737   -2.0763 H   0  0  0  0  0  0  0  0  0  0  0  0
    2.7946   -3.0769   -3.3135 H   0  0  0  0  0  0  0  0  0  0  0  0
    8.3457   -4.8783   -3.3737 H   0  0  0  0  0  0  0  0  0  0  0  0
    4.8349   -6.9998   -4.3239 H   0  0  0  0  0  0  0  0  0  0  0  0
    3.5235   -5.2089   -3.2168 H   0  0  0  0  0  0  0  0  0  0  0  0
    6.1755   -2.4590   -0.6864 H   0  0  0  0  0  0  0  0  0  0  0  0
    4.9150   -0.7226    0.5197 H   0  0  0  0  0  0  0  0  0  0  0  0
  1  2  2  0  0  0  0
  2  3  1  0  0  0  0
  2 17  1  0  0  0  0
  3  4  1  0  0  0  0
  3 30  1  0  0  0  0
  4  5  2  0  0  0  0
  4 16  1  0  0  0  0
  5  6  1  0  0  0  0
  5 31  1  0  0  0  0
  6  7  1  0  0  0  0
  6 14  2  0  0  0  0
  7  8  1  0  0  0  0
  7 32  1  0  0  0  0
  7 33  1  0  0  0  0
  8  9  2  0  0  0  0
  8 13  1  0  0  0  0
  9 10  1  0  0  0  0
  9 34  1  0  0  0  0
 10 11  2  0  0  0  0
 10 35  1  0  0  0  0
 11 12  1  0  0  0  0
 11 36  1  0  0  0  0
 12 13  2  0  0  0  0
 12 37  1  0  0  0  0
 13 38  1  0  0  0  0
 14 15  1  0  0  0  0
 14 39  1  0  0  0  0
 15 16  2  0  0  0  0
 15 40  1  0  0  0  0
 17 18  2  0  0  0  0
 17 29  1  0  0  0  0
 18 19  1  0  0  0  0
 18 41  1  0  0  0  0
 19 20  2  0  0  0  0
 19 42  1  0  0  0  0
 20 21  1  0  0  0  0
 20 28  1  0  0  0  0
 21 22  2  0  0  0  0
 21 27  1  0  0  0  0
 22 23  1  0  0  0  0
 23 24  1  0  0  0  0
 23 43  1  0  0  0  0
 24 25  2  0  0  0  0
 24 26  1  0  0  0  0
 26 27  2  0  0  0  0
 26 44  1  0  0  0  0
 27 45  1  0  0  0  0
 28 29  2  0  0  0  0
 28 46  1  0  0  0  0
 29 47  1  0  0  0  0
M  END
$$$$
