
 OpenBabel01122422353D

 44 47  0  0  0  0  0  0  0  0999 V2000
    5.9531   -0.9844   -0.0374 O   0  0  0  0  0  0  0  0  0  0  0  0
    5.5930   -0.6728   -1.1716 C   0  0  0  0  0  0  0  0  0  0  0  0
    4.9118    0.4387   -1.5106 O   0  0  0  0  0  0  0  0  0  0  0  0
    4.5303    1.2901   -0.4231 C   0  0  0  0  0  0  0  0  0  0  0  0
    5.0516    2.6913   -0.6225 C   0  0  0  0  0  0  0  0  0  0  0  0
    4.1524    3.7457   -0.7543 C   0  0  0  0  0  0  0  0  0  0  0  0
    4.6185    5.0570   -0.8171 C   0  0  0  0  0  0  0  0  0  0  0  0
    5.9870    5.3859   -0.6984 C   0  0  0  0  0  0  0  0  0  0  0  0
    6.3571    6.8187   -0.5508 C   0  0  0  0  0  0  0  0  0  0  0  0
    5.4696    7.6476    0.1770 C   0  0  0  0  0  0  0  0  0  0  0  0
    5.6144    9.0251    0.2456 C   0  0  0  0  0  0  0  0  0  0  0  0
    6.7285    9.6054   -0.3305 C   0  0  0  0  0  0  0  0  0  0  0  0
    6.8245   10.9944   -0.2094 O   0  0  0  0  0  0  0  0  0  0  0  0
    8.0268   11.6199   -0.4946 C   0  0  0  0  0  0  0  0  0  0  0  0
    8.1948   12.8125   -0.2723 O   0  0  0  0  0  0  0  0  0  0  0  0
    9.0126   10.8378   -1.0355 N   0  0  0  0  0  0  0  0  0  0  0  0
    8.9273    9.5093   -1.3637 C   0  0  0  0  0  0  0  0  0  0  0  0
    9.8359    8.9158   -1.9335 O   0  0  0  0  0  0  0  0  0  0  0  0
    7.6949    8.8227   -0.9474 C   0  0  0  0  0  0  0  0  0  0  0  0
    7.5057    7.4287   -1.0875 C   0  0  0  0  0  0  0  0  0  0  0  0
    6.8893    4.3150   -0.6432 C   0  0  0  0  0  0  0  0  0  0  0  0
    6.4247    2.9827   -0.6073 C   0  0  0  0  0  0  0  0  0  0  0  0
    5.7480   -1.5958   -2.3236 C   0  0  0  0  0  0  0  0  0  0  0  0
    5.7512   -2.9723   -2.0402 C   0  0  0  0  0  0  0  0  0  0  0  0
    5.8782   -3.9098   -3.0656 C   0  0  0  0  0  0  0  0  0  0  0  0
    5.9991   -3.4806   -4.3850 C   0  0  0  0  0  0  0  0  0  0  0  0
    6.0162   -2.1152   -4.6779 C   0  0  0  0  0  0  0  0  0  0  0  0
    5.9059   -1.1744   -3.6493 C   0  0  0  0  0  0  0  0  0  0  0  0
    5.9953    0.1544   -3.9540 O   0  0  0  0  0  0  0  0  0  0  0  0
    4.8468    0.9282    0.5624 H   0  0  0  0  0  0  0  0  0  0  0  0
    3.4337    1.2964   -0.4065 H   0  0  0  0  0  0  0  0  0  0  0  0
    3.0797    3.5697   -0.7749 H   0  0  0  0  0  0  0  0  0  0  0  0
    3.8738    5.8432   -0.9193 H   0  0  0  0  0  0  0  0  0  0  0  0
    4.6244    7.2075    0.7059 H   0  0  0  0  0  0  0  0  0  0  0  0
    4.8774    9.6283    0.7676 H   0  0  0  0  0  0  0  0  0  0  0  0
    9.8785   11.3130   -1.2465 H   0  0  0  0  0  0  0  0  0  0  0  0
    8.2573    6.8404   -1.6136 H   0  0  0  0  0  0  0  0  0  0  0  0
    7.9607    4.4888   -0.5755 H   0  0  0  0  0  0  0  0  0  0  0  0
    7.1426    2.1676   -0.5254 H   0  0  0  0  0  0  0  0  0  0  0  0
    5.6535   -3.3176   -1.0120 H   0  0  0  0  0  0  0  0  0  0  0  0
    5.8829   -4.9724   -2.8332 H   0  0  0  0  0  0  0  0  0  0  0  0
    6.0917   -4.2110   -5.1859 H   0  0  0  0  0  0  0  0  0  0  0  0
    6.1251   -1.8039   -5.7132 H   0  0  0  0  0  0  0  0  0  0  0  0
    6.1542    0.2641   -4.9054 H   0  0  0  0  0  0  0  0  0  0  0  0
  1  2  2  0  0  0  0
  2  3  1  0  0  0  0
  2 23  1  0  0  0  0
  3  4  1  0  0  0  0
  4  5  1  0  0  0  0
  4 30  1  0  0  0  0
  4 31  1  0  0  0  0
  5  6  2  0  0  0  0
  5 22  1  0  0  0  0
  6  7  1  0  0  0  0
  6 32  1  0  0  0  0
  7  8  2  0  0  0  0
  7 33  1  0  0  0  0
  8  9  1  0  0  0  0
  8 21  1  0  0  0  0
  9 10  2  0  0  0  0
  9 20  1  0  0  0  0
 10 11  1  0  0  0  0
 10 34  1  0  0  0  0
 11 12  2  0  0  0  0
 11 35  1  0  0  0  0
 12 13  1  0  0  0  0
 12 19  1  0  0  0  0
 13 14  1  0  0  0  0
 14 15  2  0  0  0  0
 14 16  1  0  0  0  0
 16 17  1  0  0  0  0
 16 36  1  0  0  0  0
 17 18  2  0  0  0  0
 17 19  1  0  0  0  0
 19 20  2  0  0  0  0
 20 37  1  0  0  0  0
 21 22  2  0  0  0  0
 21 38  1  0  0  0  0
 22 39  1  0  0  0  0
 23 24  2  0  0  0  0
 23 28  1  0  0  0  0
 24 25  1  0  0  0  0
 24 40  1  0  0  0  0
 25 26  2  0  0  0  0
 25 41  1  0  0  0  0
 26 27  1  0  0  0  0
 26 42  1  0  0  0  0
 27 28  2  0  0  0  0
 27 43  1  0  0  0  0
 28 29  1  0  0  0  0
 29 44  1  0  0  0  0
M  END
$$$$
