
 OpenBabel01122422363D

 49 52  0  0  1  0  0  0  0  0999 V2000
    3.1186    1.9712   -1.3646 O   0  0  0  0  0  0  0  0  0  0  0  0
    3.2734    1.0095   -0.6228 C   0  0  0  0  0  0  0  0  0  0  0  0
    2.9316    1.0159    0.7090 N   0  0  0  0  0  0  0  0  0  0  0  0
    2.2854    2.1726    1.3152 C   0  0  3  0  0  0  0  0  0  0  0  0
    1.2775    1.6765    2.3951 C   0  0  0  0  0  0  0  0  0  0  0  0
    0.1571    1.2782    2.0729 O   0  0  0  0  0  0  0  0  0  0  0  0
    1.8015    1.5921    3.6796 N   0  0  0  0  0  0  0  0  0  0  0  0
    1.1139    1.2018    4.8101 C   0  0  0  0  0  0  0  0  0  0  0  0
   -0.1752    0.7565    4.9272 C   0  0  0  0  0  0  0  0  0  0  0  0
   -0.4275    0.5714    6.2727 N   0  0  0  0  0  0  0  0  0  0  0  0
   -1.6502    0.0803    6.8171 C   0  0  0  0  0  0  0  0  0  0  0  0
   -2.4335   -0.6416    5.9530 N   0  0  0  0  0  0  0  0  0  0  0  0
   -3.5627   -1.1968    6.4365 C   0  0  0  0  0  0  0  0  0  0  0  0
   -3.9872   -1.0392    7.7407 C   0  0  0  0  0  0  0  0  0  0  0  0
   -3.2104   -0.2640    8.5970 C   0  0  0  0  0  0  0  0  0  0  0  0
   -2.0159    0.3079    8.1457 C   0  0  0  0  0  0  0  0  0  0  0  0
   -1.2040    1.3496    9.2584 Cl  0  0  0  0  0  0  0  0  0  0  0  0
    0.6792    0.8312    7.0199 N   0  0  0  0  0  0  0  0  0  0  0  0
    1.6023    1.1933    6.1303 C   0  0  0  0  0  0  0  0  0  0  0  0
    3.2813    3.1870    1.8657 C   0  0  0  0  0  0  0  0  0  0  0  0
    2.9091    4.5403    1.9210 C   0  0  0  0  0  0  0  0  0  0  0  0
    3.7148    5.4714    2.5754 C   0  0  0  0  0  0  0  0  0  0  0  0
    4.8961    5.0621    3.1895 C   0  0  0  0  0  0  0  0  0  0  0  0
    5.2936    3.7289    3.1196 C   0  0  0  0  0  0  0  0  0  0  0  0
    4.5028    2.7988    2.4458 C   0  0  0  0  0  0  0  0  0  0  0  0
    3.9078   -0.2347   -1.1371 C   0  0  0  0  0  0  0  0  0  0  0  0
    4.8138   -0.1282   -2.1990 C   0  0  0  0  0  0  0  0  0  0  0  0
    5.4237   -1.2707   -2.7200 C   0  0  0  0  0  0  0  0  0  0  0  0
    5.1239   -2.5245   -2.1893 C   0  0  0  0  0  0  0  0  0  0  0  0
    4.2093   -2.6396   -1.1414 C   0  0  0  0  0  0  0  0  0  0  0  0
    3.5972   -1.4980   -0.6161 C   0  0  0  0  0  0  0  0  0  0  0  0
    3.1720    0.2353    1.3011 H   0  0  0  0  0  0  0  0  0  0  0  0
    1.6876    2.6703    0.5400 H   0  0  0  0  0  0  0  0  0  0  0  0
    2.7313    1.9516    3.8516 H   0  0  0  0  0  0  0  0  0  0  0  0
   -0.9577    0.5969    4.1984 H   0  0  0  0  0  0  0  0  0  0  0  0
   -4.1308   -1.7908    5.7256 H   0  0  0  0  0  0  0  0  0  0  0  0
   -4.9098   -1.4955    8.0819 H   0  0  0  0  0  0  0  0  0  0  0  0
   -3.5474   -0.0946    9.6172 H   0  0  0  0  0  0  0  0  0  0  0  0
    2.5929    1.4469    6.4883 H   0  0  0  0  0  0  0  0  0  0  0  0
    1.9771    4.8751    1.4671 H   0  0  0  0  0  0  0  0  0  0  0  0
    3.4122    6.5149    2.6178 H   0  0  0  0  0  0  0  0  0  0  0  0
    5.5097    5.7857    3.7199 H   0  0  0  0  0  0  0  0  0  0  0  0
    6.2165    3.4126    3.5996 H   0  0  0  0  0  0  0  0  0  0  0  0
    4.8290    1.7615    2.4155 H   0  0  0  0  0  0  0  0  0  0  0  0
    5.0431    0.8469   -2.6233 H   0  0  0  0  0  0  0  0  0  0  0  0
    6.1253   -1.1806   -3.5461 H   0  0  0  0  0  0  0  0  0  0  0  0
    5.5922   -3.4142   -2.6039 H   0  0  0  0  0  0  0  0  0  0  0  0
    3.9624   -3.6228   -0.7458 H   0  0  0  0  0  0  0  0  0  0  0  0
    2.8560   -1.6195    0.1696 H   0  0  0  0  0  0  0  0  0  0  0  0
  1  2  2  0  0  0  0
  2  3  1  0  0  0  0
  2 26  1  0  0  0  0
  3  4  1  0  0  0  0
  3 32  1  0  0  0  0
  4  5  1  0  0  0  0
  4 20  1  0  0  0  0
  4 33  1  0  0  0  0
  5  6  2  0  0  0  0
  5  7  1  0  0  0  0
  7  8  1  0  0  0  0
  7 34  1  0  0  0  0
  8  9  2  0  0  0  0
  8 19  1  0  0  0  0
  9 10  1  0  0  0  0
  9 35  1  0  0  0  0
 10 11  1  0  0  0  0
 10 18  1  0  0  0  0
 11 12  2  0  0  0  0
 11 16  1  0  0  0  0
 12 13  1  0  0  0  0
 13 14  2  0  0  0  0
 13 36  1  0  0  0  0
 14 15  1  0  0  0  0
 14 37  1  0  0  0  0
 15 16  2  0  0  0  0
 15 38  1  0  0  0  0
 16 17  1  0  0  0  0
 18 19  2  0  0  0  0
 19 39  1  0  0  0  0
 20 21  2  0  0  0  0
 20 25  1  0  0  0  0
 21 22  1  0  0  0  0
 21 40  1  0  0  0  0
 22 23  2  0  0  0  0
 22 41  1  0  0  0  0
 23 24  1  0  0  0  0
 23 42  1  0  0  0  0
 24 25  2  0  0  0  0
 24 43  1  0  0  0  0
 25 44  1  0  0  0  0
 26 27  2  0  0  0  0
 26 31  1  0  0  0  0
 27 28  1  0  0  0  0
 27 45  1  0  0  0  0
 28 29  2  0  0  0  0
 28 46  1  0  0  0  0
 29 30  1  0  0  0  0
 29 47  1  0  0  0  0
 30 31  2  0  0  0  0
 30 48  1  0  0  0  0
 31 49  1  0  0  0  0
M  END
$$$$
