
 OpenBabel01122422363D

 47 50  0  0  0  0  0  0  0  0999 V2000
    5.7760   -2.2602   -1.1272 N   0  0  0  0  0  0  0  0  0  0  0  0
    5.7560   -1.3625   -0.0759 C   0  0  0  0  0  0  0  0  0  0  0  0
    5.6443   -1.8444    1.1794 N   0  0  0  0  0  0  0  0  0  0  0  0
    5.6235   -0.9909    2.2284 N   0  0  0  0  0  0  0  0  0  0  0  0
    5.7168    0.3234    1.9685 C   0  0  0  0  0  0  0  0  0  0  0  0
    5.8062    0.7978    0.6719 C   0  0  0  0  0  0  0  0  0  0  0  0
    5.9282    2.2360    0.3532 C   0  0  0  0  0  0  0  0  0  0  0  0
    5.3861    3.2269    1.1971 C   0  0  0  0  0  0  0  0  0  0  0  0
    5.5849    4.5866    0.9500 C   0  0  0  0  0  0  0  0  0  0  0  0
    6.3061    4.9889   -0.1687 C   0  0  0  0  0  0  0  0  0  0  0  0
    6.8052    4.0351   -1.0609 C   0  0  0  0  0  0  0  0  0  0  0  0
    7.5494    4.5284   -2.2516 C   0  0  0  0  0  0  0  0  0  0  0  0
    8.1708    5.5809   -2.1831 O   0  0  0  0  0  0  0  0  0  0  0  0
    7.4493    3.7736   -3.3971 N   0  0  0  0  0  0  0  0  0  0  0  0
    8.0953    4.1797   -4.6236 C   0  0  0  0  0  0  0  0  0  0  0  0
    9.1045    3.1525   -5.0580 C   0  0  0  0  0  0  0  0  0  0  0  0
   10.4361    3.2345   -4.6337 C   0  0  0  0  0  0  0  0  0  0  0  0
   11.3712    2.2675   -5.0282 C   0  0  0  0  0  0  0  0  0  0  0  0
   11.0055    1.1820   -5.8456 C   0  0  0  0  0  0  0  0  0  0  0  0
   11.9965    0.1682   -6.2576 C   0  0  0  0  0  0  0  0  0  0  0  0
   11.6591   -1.1615   -6.5139 C   0  0  0  0  0  0  0  0  0  0  0  0
   12.6385   -2.0497   -6.9527 C   0  0  0  0  0  0  0  0  0  0  0  0
   13.9398   -1.6000   -7.1079 C   0  0  0  0  0  0  0  0  0  0  0  0
   14.2097   -0.2776   -6.8053 C   0  0  0  0  0  0  0  0  0  0  0  0
   13.2771    0.6067   -6.3841 N   0  0  0  0  0  0  0  0  0  0  0  0
    9.6641    1.1260   -6.2562 C   0  0  0  0  0  0  0  0  0  0  0  0
    9.2331    0.1440   -7.0639 F   0  0  0  0  0  0  0  0  0  0  0  0
    8.7253    2.0826   -5.8698 C   0  0  0  0  0  0  0  0  0  0  0  0
    6.6256    2.6693   -0.7946 C   0  0  0  0  0  0  0  0  0  0  0  0
    5.8196   -0.0590   -0.3765 N   0  0  0  0  0  0  0  0  0  0  0  0
    5.3463   -3.1333   -0.8541 H   0  0  0  0  0  0  0  0  0  0  0  0
    5.4412   -1.8205   -1.9729 H   0  0  0  0  0  0  0  0  0  0  0  0
    5.7356    0.9642    2.8392 H   0  0  0  0  0  0  0  0  0  0  0  0
    4.7984    2.9564    2.0724 H   0  0  0  0  0  0  0  0  0  0  0  0
    5.1828    5.3310    1.6335 H   0  0  0  0  0  0  0  0  0  0  0  0
    6.4746    6.0489   -0.3498 H   0  0  0  0  0  0  0  0  0  0  0  0
    6.8448    2.9638   -3.4250 H   0  0  0  0  0  0  0  0  0  0  0  0
    8.5748    5.1592   -4.5203 H   0  0  0  0  0  0  0  0  0  0  0  0
    7.3150    4.2891   -5.3848 H   0  0  0  0  0  0  0  0  0  0  0  0
   10.7560    4.0566   -3.9941 H   0  0  0  0  0  0  0  0  0  0  0  0
   12.4023    2.3657   -4.6871 H   0  0  0  0  0  0  0  0  0  0  0  0
   10.6436   -1.5196   -6.3809 H   0  0  0  0  0  0  0  0  0  0  0  0
   12.3766   -3.0801   -7.1744 H   0  0  0  0  0  0  0  0  0  0  0  0
   14.7234   -2.2633   -7.4546 H   0  0  0  0  0  0  0  0  0  0  0  0
   15.2153    0.1220   -6.9009 H   0  0  0  0  0  0  0  0  0  0  0  0
    7.7035    1.9785   -6.2229 H   0  0  0  0  0  0  0  0  0  0  0  0
    7.0713    1.9265   -1.4547 H   0  0  0  0  0  0  0  0  0  0  0  0
  1  2  1  0  0  0  0
  1 31  1  0  0  0  0
  1 32  1  0  0  0  0
  2  3  2  0  0  0  0
  2 30  1  0  0  0  0
  3  4  1  0  0  0  0
  4  5  2  0  0  0  0
  5  6  1  0  0  0  0
  5 33  1  0  0  0  0
  6  7  1  0  0  0  0
  6 30  2  0  0  0  0
  7  8  2  0  0  0  0
  7 29  1  0  0  0  0
  8  9  1  0  0  0  0
  8 34  1  0  0  0  0
  9 10  2  0  0  0  0
  9 35  1  0  0  0  0
 10 11  1  0  0  0  0
 10 36  1  0  0  0  0
 11 12  1  0  0  0  0
 11 29  2  0  0  0  0
 12 13  2  0  0  0  0
 12 14  1  0  0  0  0
 14 15  1  0  0  0  0
 14 37  1  0  0  0  0
 15 16  1  0  0  0  0
 15 38  1  0  0  0  0
 15 39  1  0  0  0  0
 16 17  2  0  0  0  0
 16 28  1  0  0  0  0
 17 18  1  0  0  0  0
 17 40  1  0  0  0  0
 18 19  2  0  0  0  0
 18 41  1  0  0  0  0
 19 20  1  0  0  0  0
 19 26  1  0  0  0  0
 20 21  2  0  0  0  0
 20 25  1  0  0  0  0
 21 22  1  0  0  0  0
 21 42  1  0  0  0  0
 22 23  2  0  0  0  0
 22 43  1  0  0  0  0
 23 24  1  0  0  0  0
 23 44  1  0  0  0  0
 24 25  2  0  0  0  0
 24 45  1  0  0  0  0
 26 27  1  0  0  0  0
 26 28  2  0  0  0  0
 28 46  1  0  0  0  0
 29 47  1  0  0  0  0
M  END
$$$$
