
 OpenBabel01122422363D

 59 62  0  0  1  0  0  0  0  0999 V2000
    6.8555    7.1402    1.4274 C   0  0  0  0  0  0  0  0  0  0  0  0
    7.0289    6.3993    0.2152 O   0  0  0  0  0  0  0  0  0  0  0  0
    6.6256    5.0889    0.2317 C   0  0  0  0  0  0  0  0  0  0  0  0
    6.2062    4.3984    1.3703 C   0  0  0  0  0  0  0  0  0  0  0  0
    5.7808    3.0773    1.2678 C   0  0  0  0  0  0  0  0  0  0  0  0
    5.7730    2.4438    0.0279 C   0  0  0  0  0  0  0  0  0  0  0  0
    6.1945    3.1115   -1.1381 C   0  0  0  0  0  0  0  0  0  0  0  0
    6.0047    2.3844   -2.4562 C   0  0  3  0  0  0  0  0  0  0  0  0
    4.6071    2.4540   -2.7981 O   0  0  0  0  0  0  0  0  0  0  0  0
    6.8014    2.8079   -3.7110 C   0  0  0  0  0  0  0  0  0  0  0  0
    8.2538    2.5579   -3.7263 N   0  0  0  0  0  0  0  0  0  0  0  0
    8.7285    1.1767   -3.5362 C   0  0  0  0  0  0  0  0  0  0  0  0
    9.1161    0.3427   -4.7411 C   0  0  0  0  0  0  0  0  0  0  0  0
   10.1030   -0.6488   -4.5576 C   0  0  0  0  0  0  0  0  0  0  0  0
   10.5056   -1.4847   -5.6012 C   0  0  0  0  0  0  0  0  0  0  0  0
    9.9073   -1.3660   -6.8491 C   0  0  0  0  0  0  0  0  0  0  0  0
    8.8881   -0.4328   -7.0374 C   0  0  0  0  0  0  0  0  0  0  0  0
    8.4868    0.4109   -5.9895 C   0  0  0  0  0  0  0  0  0  0  0  0
    9.0673    3.6570   -4.0220 C   0  0  0  0  0  0  0  0  0  0  0  0
    8.6523    4.8163   -4.0597 O   0  0  0  0  0  0  0  0  0  0  0  0
   10.4362    3.4379   -4.5148 C   0  0  0  0  0  0  0  0  0  0  0  0
   10.6657    3.9242   -5.8224 C   0  0  0  0  0  0  0  0  0  0  0  0
   11.7924    3.5285   -6.5117 C   0  0  0  0  0  0  0  0  0  0  0  0
   12.6962    2.7367   -5.8347 C   0  0  0  0  0  0  0  0  0  0  0  0
   13.9219    2.2817   -6.4629 C   0  0  0  0  0  0  0  0  0  0  0  0
   13.9436    1.3921   -7.2958 O   0  0  0  0  0  0  0  0  0  0  0  0
   14.9756    2.9803   -5.9570 N   0  0  0  0  0  0  0  0  0  0  0  0
   15.6066    3.8623   -6.9117 C   0  0  0  0  0  0  0  0  0  0  0  0
   15.0924    3.1289   -4.5827 C   0  0  0  0  0  0  0  0  0  0  0  0
   16.0262    3.6804   -4.0230 O   0  0  0  0  0  0  0  0  0  0  0  0
   13.9587    2.6794   -3.8289 N   0  0  0  0  0  0  0  0  0  0  0  0
   12.6908    2.6944   -4.4453 C   0  0  0  0  0  0  0  0  0  0  0  0
   11.5000    2.9176   -3.7723 C   0  0  0  0  0  0  0  0  0  0  0  0
    6.6305    4.4394   -1.0156 C   0  0  0  0  0  0  0  0  0  0  0  0
    7.0838    8.1867    1.2171 H   0  0  0  0  0  0  0  0  0  0  0  0
    7.5513    6.7890    2.1961 H   0  0  0  0  0  0  0  0  0  0  0  0
    5.8200    7.0912    1.7804 H   0  0  0  0  0  0  0  0  0  0  0  0
    6.1882    4.8626    2.3506 H   0  0  0  0  0  0  0  0  0  0  0  0
    5.4328    2.5481    2.1510 H   0  0  0  0  0  0  0  0  0  0  0  0
    5.3987    1.4231   -0.0347 H   0  0  0  0  0  0  0  0  0  0  0  0
    6.1979    1.3233   -2.2734 H   0  0  0  0  0  0  0  0  0  0  0  0
    4.1576    2.9874   -2.1189 H   0  0  0  0  0  0  0  0  0  0  0  0
    6.5806    3.8591   -3.9320 H   0  0  0  0  0  0  0  0  0  0  0  0
    6.3930    2.2670   -4.5750 H   0  0  0  0  0  0  0  0  0  0  0  0
    7.9799    0.6093   -2.9784 H   0  0  0  0  0  0  0  0  0  0  0  0
    9.5966    1.2462   -2.8734 H   0  0  0  0  0  0  0  0  0  0  0  0
   10.5692   -0.7846   -3.5833 H   0  0  0  0  0  0  0  0  0  0  0  0
   11.2833   -2.2275   -5.4385 H   0  0  0  0  0  0  0  0  0  0  0  0
   10.2288   -2.0045   -7.6687 H   0  0  0  0  0  0  0  0  0  0  0  0
    8.4029   -0.3664   -8.0089 H   0  0  0  0  0  0  0  0  0  0  0  0
    7.6747    1.1091   -6.1707 H   0  0  0  0  0  0  0  0  0  0  0  0
    9.9521    4.5978   -6.2961 H   0  0  0  0  0  0  0  0  0  0  0  0
   11.9992    3.8748   -7.5181 H   0  0  0  0  0  0  0  0  0  0  0  0
   14.8017    4.4175   -7.4217 H   0  0  0  0  0  0  0  0  0  0  0  0
   16.1169    3.2831   -7.6874 H   0  0  0  0  0  0  0  0  0  0  0  0
   16.2671    4.5902   -6.4423 H   0  0  0  0  0  0  0  0  0  0  0  0
   14.0425    2.8444   -2.8265 H   0  0  0  0  0  0  0  0  0  0  0  0
   11.4113    2.7582   -2.7016 H   0  0  0  0  0  0  0  0  0  0  0  0
    6.9524    5.0051   -1.8895 H   0  0  0  0  0  0  0  0  0  0  0  0
  1  2  1  0  0  0  0
  1 35  1  0  0  0  0
  1 36  1  0  0  0  0
  1 37  1  0  0  0  0
  2  3  1  0  0  0  0
  3  4  2  0  0  0  0
  3 34  1  0  0  0  0
  4  5  1  0  0  0  0
  4 38  1  0  0  0  0
  5  6  2  0  0  0  0
  5 39  1  0  0  0  0
  6  7  1  0  0  0  0
  6 40  1  0  0  0  0
  7  8  1  0  0  0  0
  7 34  2  0  0  0  0
  8  9  1  0  0  0  0
  8 10  1  0  0  0  0
  8 41  1  0  0  0  0
  9 42  1  0  0  0  0
 10 11  1  0  0  0  0
 10 43  1  0  0  0  0
 10 44  1  0  0  0  0
 11 12  1  0  0  0  0
 11 19  1  0  0  0  0
 12 13  1  0  0  0  0
 12 45  1  0  0  0  0
 12 46  1  0  0  0  0
 13 14  2  0  0  0  0
 13 18  1  0  0  0  0
 14 15  1  0  0  0  0
 14 47  1  0  0  0  0
 15 16  2  0  0  0  0
 15 48  1  0  0  0  0
 16 17  1  0  0  0  0
 16 49  1  0  0  0  0
 17 18  2  0  0  0  0
 17 50  1  0  0  0  0
 18 51  1  0  0  0  0
 19 20  2  0  0  0  0
 19 21  1  0  0  0  0
 21 22  2  0  0  0  0
 21 33  1  0  0  0  0
 22 23  1  0  0  0  0
 22 52  1  0  0  0  0
 23 24  2  0  0  0  0
 23 53  1  0  0  0  0
 24 25  1  0  0  0  0
 24 32  1  0  0  0  0
 25 26  2  0  0  0  0
 25 27  1  0  0  0  0
 27 28  1  0  0  0  0
 27 29  1  0  0  0  0
 28 54  1  0  0  0  0
 28 55  1  0  0  0  0
 28 56  1  0  0  0  0
 29 30  2  0  0  0  0
 29 31  1  0  0  0  0
 31 32  1  0  0  0  0
 31 57  1  0  0  0  0
 32 33  2  0  0  0  0
 33 58  1  0  0  0  0
 34 59  1  0  0  0  0
M  END
$$$$
