
 OpenBabel01122422363D

 40 43  0  0  0  0  0  0  0  0999 V2000
    0.8904   -0.2280   -0.0021 O   0  0  0  0  0  0  0  0  0  0  0  0
    2.1048   -0.0639    0.0487 C   0  0  0  0  0  0  0  0  0  0  0  0
    2.7761    1.0836    0.3845 N   0  0  0  0  0  0  0  0  0  0  0  0
    2.1555    2.2386    0.7715 C   0  0  0  0  0  0  0  0  0  0  0  0
    0.8826    2.3961    1.1261 N   0  0  0  0  0  0  0  0  0  0  0  0
    0.7789    3.7249    1.3014 N   0  0  0  0  0  0  0  0  0  0  0  0
   -0.4530    4.3467    1.6194 C   0  0  0  0  0  0  0  0  0  0  0  0
   -1.5866    3.5578    1.8796 C   0  0  0  0  0  0  0  0  0  0  0  0
   -2.7958    4.1755    2.1952 C   0  0  0  0  0  0  0  0  0  0  0  0
   -3.8711    3.4224    2.4613 F   0  0  0  0  0  0  0  0  0  0  0  0
   -2.9085    5.5571    2.2432 C   0  0  0  0  0  0  0  0  0  0  0  0
   -1.7865    6.3266    1.9734 C   0  0  0  0  0  0  0  0  0  0  0  0
   -1.8795    7.6615    2.0010 F   0  0  0  0  0  0  0  0  0  0  0  0
   -0.5592    5.7412    1.6691 C   0  0  0  0  0  0  0  0  0  0  0  0
    2.0130    4.2986    1.1077 C   0  0  0  0  0  0  0  0  0  0  0  0
    2.9004    3.3802    0.8027 N   0  0  0  0  0  0  0  0  0  0  0  0
    2.9587   -1.2082   -0.3487 C   0  0  0  0  0  0  0  0  0  0  0  0
    2.5282   -2.0277   -1.4011 C   0  0  0  0  0  0  0  0  0  0  0  0
    3.2627   -3.1604   -1.7617 C   0  0  0  0  0  0  0  0  0  0  0  0
    4.4108   -3.5041   -1.0350 C   0  0  0  0  0  0  0  0  0  0  0  0
    5.1243   -4.6879   -1.3565 N   0  0  0  0  0  0  0  0  0  0  0  0
    5.8654   -5.4629   -0.4872 C   0  0  0  0  0  0  0  0  0  0  0  0
    6.4051   -6.5263   -1.1761 C   0  0  0  0  0  0  0  0  0  0  0  0
    5.9950   -6.4036   -2.5191 C   0  0  0  0  0  0  0  0  0  0  0  0
    5.1852   -5.2910   -2.5990 C   0  0  0  0  0  0  0  0  0  0  0  0
    4.8272   -2.6798    0.0177 C   0  0  0  0  0  0  0  0  0  0  0  0
    5.9458   -2.9378    0.7099 F   0  0  0  0  0  0  0  0  0  0  0  0
    4.1216   -1.5260    0.3534 C   0  0  0  0  0  0  0  0  0  0  0  0
    3.7629    1.1914    0.2060 H   0  0  0  0  0  0  0  0  0  0  0  0
   -1.5496    2.4702    1.8459 H   0  0  0  0  0  0  0  0  0  0  0  0
   -3.8544    6.0267    2.4844 H   0  0  0  0  0  0  0  0  0  0  0  0
    0.2721    6.4059    1.4615 H   0  0  0  0  0  0  0  0  0  0  0  0
    2.2053    5.3564    1.1972 H   0  0  0  0  0  0  0  0  0  0  0  0
    1.6022   -1.7953   -1.9268 H   0  0  0  0  0  0  0  0  0  0  0  0
    2.8791   -3.7913   -2.5604 H   0  0  0  0  0  0  0  0  0  0  0  0
    5.9216   -5.2242    0.5663 H   0  0  0  0  0  0  0  0  0  0  0  0
    7.0255   -7.3036   -0.7489 H   0  0  0  0  0  0  0  0  0  0  0  0
    6.2573   -7.0557   -3.3422 H   0  0  0  0  0  0  0  0  0  0  0  0
    4.6991   -4.8537   -3.4601 H   0  0  0  0  0  0  0  0  0  0  0  0
    4.4727   -0.9228    1.1842 H   0  0  0  0  0  0  0  0  0  0  0  0
  1  2  2  0  0  0  0
  2  3  1  0  0  0  0
  2 17  1  0  0  0  0
  3  4  1  0  0  0  0
  3 29  1  0  0  0  0
  4  5  2  0  0  0  0
  4 16  1  0  0  0  0
  5  6  1  0  0  0  0
  6  7  1  0  0  0  0
  6 15  1  0  0  0  0
  7  8  2  0  0  0  0
  7 14  1  0  0  0  0
  8  9  1  0  0  0  0
  8 30  1  0  0  0  0
  9 10  1  0  0  0  0
  9 11  2  0  0  0  0
 11 12  1  0  0  0  0
 11 31  1  0  0  0  0
 12 13  1  0  0  0  0
 12 14  2  0  0  0  0
 14 32  1  0  0  0  0
 15 16  2  0  0  0  0
 15 33  1  0  0  0  0
 17 18  2  0  0  0  0
 17 28  1  0  0  0  0
 18 19  1  0  0  0  0
 18 34  1  0  0  0  0
 19 20  2  0  0  0  0
 19 35  1  0  0  0  0
 20 21  1  0  0  0  0
 20 26  1  0  0  0  0
 21 22  1  0  0  0  0
 21 25  1  0  0  0  0
 22 23  2  0  0  0  0
 22 36  1  0  0  0  0
 23 24  1  0  0  0  0
 23 37  1  0  0  0  0
 24 25  2  0  0  0  0
 24 38  1  0  0  0  0
 25 39  1  0  0  0  0
 26 27  1  0  0  0  0
 26 28  2  0  0  0  0
 28 40  1  0  0  0  0
M  END
$$$$
