
 OpenBabel01122422363D

 46 48  0  0  0  0  0  0  0  0999 V2000
    3.2814    2.2879   -1.6913 C   0  0  0  0  0  0  0  0  0  0  0  0
    4.3759    1.5060   -1.2274 O   0  0  0  0  0  0  0  0  0  0  0  0
    4.4430    0.2127   -1.6656 C   0  0  0  0  0  0  0  0  0  0  0  0
    5.5389   -0.5015   -1.1765 C   0  0  0  0  0  0  0  0  0  0  0  0
    5.7601   -1.8242   -1.5698 C   0  0  0  0  0  0  0  0  0  0  0  0
    4.8822   -2.4512   -2.4629 C   0  0  0  0  0  0  0  0  0  0  0  0
    5.2160   -3.8271   -2.9283 C   0  0  0  0  0  0  0  0  0  0  0  0
    6.0070   -4.4977   -2.2682 O   0  0  0  0  0  0  0  0  0  0  0  0
    4.7125   -4.3775   -4.2117 C   0  0  0  0  0  0  0  0  0  0  0  0
    4.7647   -3.5044   -5.3226 C   0  0  0  0  0  0  0  0  0  0  0  0
    4.2852   -3.8909   -6.5718 C   0  0  0  0  0  0  0  0  0  0  0  0
    3.7933   -5.1739   -6.7481 C   0  0  0  0  0  0  0  0  0  0  0  0
    3.7819   -6.0631   -5.6722 C   0  0  0  0  0  0  0  0  0  0  0  0
    4.2363   -5.6917   -4.3847 C   0  0  0  0  0  0  0  0  0  0  0  0
    4.0582   -6.7632   -3.3423 C   0  0  0  0  0  0  0  0  0  0  0  0
    3.1721   -7.5926   -3.5472 O   0  0  0  0  0  0  0  0  0  0  0  0
    4.8715   -6.7550   -2.2307 N   0  0  0  0  0  0  0  0  0  0  0  0
    4.8332   -7.6550   -1.1441 C   0  0  0  0  0  0  0  0  0  0  0  0
    4.2081   -8.9057   -1.1968 C   0  0  0  0  0  0  0  0  0  0  0  0
    4.1834   -9.7577   -0.0790 C   0  0  0  0  0  0  0  0  0  0  0  0
    3.4831  -11.0880   -0.1824 C   0  0  0  0  0  0  0  0  0  0  0  0
    4.0925  -12.0634    0.6540 O   0  0  0  0  0  0  0  0  0  0  0  0
    4.7564   -9.3145    1.1184 C   0  0  0  0  0  0  0  0  0  0  0  0
    5.3932   -8.0790    1.1628 C   0  0  0  0  0  0  0  0  0  0  0  0
    5.9452   -7.6649    2.3109 F   0  0  0  0  0  0  0  0  0  0  0  0
    5.4579   -7.2598    0.0408 C   0  0  0  0  0  0  0  0  0  0  0  0
    3.7541   -1.7613   -2.9098 C   0  0  0  0  0  0  0  0  0  0  0  0
    3.5542   -0.4354   -2.5268 C   0  0  0  0  0  0  0  0  0  0  0  0
    2.4874    0.1941   -3.0401 F   0  0  0  0  0  0  0  0  0  0  0  0
    3.3723    3.2810   -1.2455 H   0  0  0  0  0  0  0  0  0  0  0  0
    2.3278    1.8631   -1.3693 H   0  0  0  0  0  0  0  0  0  0  0  0
    3.3225    2.4135   -2.7788 H   0  0  0  0  0  0  0  0  0  0  0  0
    6.2376   -0.0208   -0.4940 H   0  0  0  0  0  0  0  0  0  0  0  0
    6.6331   -2.3523   -1.1892 H   0  0  0  0  0  0  0  0  0  0  0  0
    5.1759   -2.5010   -5.2260 H   0  0  0  0  0  0  0  0  0  0  0  0
    4.2994   -3.1909   -7.4041 H   0  0  0  0  0  0  0  0  0  0  0  0
    3.4178   -5.4902   -7.7186 H   0  0  0  0  0  0  0  0  0  0  0  0
    3.3965   -7.0696   -5.8456 H   0  0  0  0  0  0  0  0  0  0  0  0
    5.5168   -5.9737   -2.1184 H   0  0  0  0  0  0  0  0  0  0  0  0
    3.7453   -9.2497   -2.1187 H   0  0  0  0  0  0  0  0  0  0  0  0
    3.5296  -11.4682   -1.2079 H   0  0  0  0  0  0  0  0  0  0  0  0
    2.4329  -10.9813    0.1037 H   0  0  0  0  0  0  0  0  0  0  0  0
    5.0386  -12.0670    0.4335 H   0  0  0  0  0  0  0  0  0  0  0  0
    4.7134   -9.9208    2.0182 H   0  0  0  0  0  0  0  0  0  0  0  0
    5.9595   -6.3000    0.1243 H   0  0  0  0  0  0  0  0  0  0  0  0
    3.0208   -2.2159   -3.5698 H   0  0  0  0  0  0  0  0  0  0  0  0
  1  2  1  0  0  0  0
  1 30  1  0  0  0  0
  1 31  1  0  0  0  0
  1 32  1  0  0  0  0
  2  3  1  0  0  0  0
  3  4  2  0  0  0  0
  3 28  1  0  0  0  0
  4  5  1  0  0  0  0
  4 33  1  0  0  0  0
  5  6  2  0  0  0  0
  5 34  1  0  0  0  0
  6  7  1  0  0  0  0
  6 27  1  0  0  0  0
  7  8  2  0  0  0  0
  7  9  1  0  0  0  0
  9 10  2  0  0  0  0
  9 14  1  0  0  0  0
 10 11  1  0  0  0  0
 10 35  1  0  0  0  0
 11 12  2  0  0  0  0
 11 36  1  0  0  0  0
 12 13  1  0  0  0  0
 12 37  1  0  0  0  0
 13 14  2  0  0  0  0
 13 38  1  0  0  0  0
 14 15  1  0  0  0  0
 15 16  2  0  0  0  0
 15 17  1  0  0  0  0
 17 18  1  0  0  0  0
 17 39  1  0  0  0  0
 18 19  2  0  0  0  0
 18 26  1  0  0  0  0
 19 20  1  0  0  0  0
 19 40  1  0  0  0  0
 20 21  1  0  0  0  0
 20 23  2  0  0  0  0
 21 22  1  0  0  0  0
 21 41  1  0  0  0  0
 21 42  1  0  0  0  0
 22 43  1  0  0  0  0
 23 24  1  0  0  0  0
 23 44  1  0  0  0  0
 24 25  1  0  0  0  0
 24 26  2  0  0  0  0
 26 45  1  0  0  0  0
 27 28  2  0  0  0  0
 27 46  1  0  0  0  0
 28 29  1  0  0  0  0
M  END
$$$$
