
 OpenBabel01122422363D

 50 53  0  0  0  0  0  0  0  0999 V2000
    3.6220    2.3496    2.9550 N   0  0  0  0  0  0  0  0  0  0  0  0
    2.7820    2.0643    1.9169 C   0  0  0  0  0  0  0  0  0  0  0  0
    1.6001    2.3732    1.9652 O   0  0  0  0  0  0  0  0  0  0  0  0
    3.3702    1.2786    0.7279 C   0  0  0  0  0  0  0  0  0  0  0  0
    4.8320    1.0487    0.7289 N   0  0  0  0  0  0  0  0  0  0  0  0
    5.2598   -0.1451   -0.0145 C   0  0  0  0  0  0  0  0  0  0  0  0
    5.3385   -1.4734    0.7222 C   0  0  0  0  0  0  0  0  0  0  0  0
    4.2810   -2.3939    0.7424 C   0  0  0  0  0  0  0  0  0  0  0  0
    4.4838   -3.7328    1.1580 C   0  0  0  0  0  0  0  0  0  0  0  0
    5.7460   -4.2050    1.5647 C   0  0  0  0  0  0  0  0  0  0  0  0
    6.0546   -5.6464    1.8091 C   0  0  0  0  0  0  0  0  0  0  0  0
    5.3965   -6.6815    1.1163 C   0  0  0  0  0  0  0  0  0  0  0  0
    5.7940   -8.0228    1.2416 C   0  0  0  0  0  0  0  0  0  0  0  0
    6.8648   -8.3657    2.0604 C   0  0  0  0  0  0  0  0  0  0  0  0
    7.5149   -7.3724    2.7810 C   0  0  0  0  0  0  0  0  0  0  0  0
    7.1018   -6.0387    2.6679 C   0  0  0  0  0  0  0  0  0  0  0  0
    6.7639   -3.2390    1.6332 C   0  0  0  0  0  0  0  0  0  0  0  0
    6.5673   -1.9112    1.2250 C   0  0  0  0  0  0  0  0  0  0  0  0
    5.5726    2.2230    0.4252 C   0  0  0  0  0  0  0  0  0  0  0  0
    5.0381    3.2242   -0.0448 O   0  0  0  0  0  0  0  0  0  0  0  0
    6.9595    2.2800    0.8783 C   0  0  0  0  0  0  0  0  0  0  0  0
    7.5234    1.4875    1.8585 C   0  0  0  0  0  0  0  0  0  0  0  0
    8.7109    1.9883    2.2762 O   0  0  0  0  0  0  0  0  0  0  0  0
    8.9225    3.1319    1.5758 C   0  0  0  0  0  0  0  0  0  0  0  0
    9.9362    4.0513    1.8369 C   0  0  0  0  0  0  0  0  0  0  0  0
    9.9757    5.1886    1.0271 C   0  0  0  0  0  0  0  0  0  0  0  0
    9.0811    5.3309   -0.0333 C   0  0  0  0  0  0  0  0  0  0  0  0
    9.1523    6.4200   -0.8538 O   0  0  0  0  0  0  0  0  0  0  0  0
    8.0652    4.3953   -0.2746 C   0  0  0  0  0  0  0  0  0  0  0  0
    7.9432    3.2943    0.6015 C   0  0  0  0  0  0  0  0  0  0  0  0
    3.2604    2.9355    3.6961 H   0  0  0  0  0  0  0  0  0  0  0  0
    4.6194    2.2341    2.8731 H   0  0  0  0  0  0  0  0  0  0  0  0
    3.0939    1.8201   -0.1873 H   0  0  0  0  0  0  0  0  0  0  0  0
    2.8593    0.3108    0.7230 H   0  0  0  0  0  0  0  0  0  0  0  0
    6.2452    0.0404   -0.4616 H   0  0  0  0  0  0  0  0  0  0  0  0
    4.5971   -0.2566   -0.8834 H   0  0  0  0  0  0  0  0  0  0  0  0
    3.2998   -2.1131    0.3654 H   0  0  0  0  0  0  0  0  0  0  0  0
    3.6376   -4.4147    1.1140 H   0  0  0  0  0  0  0  0  0  0  0  0
    4.5834   -6.4599    0.4289 H   0  0  0  0  0  0  0  0  0  0  0  0
    5.2796   -8.7978    0.6774 H   0  0  0  0  0  0  0  0  0  0  0  0
    7.1942   -9.3992    2.1336 H   0  0  0  0  0  0  0  0  0  0  0  0
    8.3556   -7.6266    3.4223 H   0  0  0  0  0  0  0  0  0  0  0  0
    7.6364   -5.2988    3.2596 H   0  0  0  0  0  0  0  0  0  0  0  0
    7.7701   -3.5222    1.9317 H   0  0  0  0  0  0  0  0  0  0  0  0
    7.4366   -1.2607    1.2202 H   0  0  0  0  0  0  0  0  0  0  0  0
    7.1715    0.6366    2.4219 H   0  0  0  0  0  0  0  0  0  0  0  0
   10.6149    3.9137    2.6699 H   0  0  0  0  0  0  0  0  0  0  0  0
   10.7076    5.9609    1.2478 H   0  0  0  0  0  0  0  0  0  0  0  0
    9.8830    6.9946   -0.5603 H   0  0  0  0  0  0  0  0  0  0  0  0
    7.3621    4.5518   -1.0875 H   0  0  0  0  0  0  0  0  0  0  0  0
  1  2  1  0  0  0  0
  1 31  1  0  0  0  0
  1 32  1  0  0  0  0
  2  3  2  0  0  0  0
  2  4  1  0  0  0  0
  4  5  1  0  0  0  0
  4 33  1  0  0  0  0
  4 34  1  0  0  0  0
  5  6  1  0  0  0  0
  5 19  1  0  0  0  0
  6  7  1  0  0  0  0
  6 35  1  0  0  0  0
  6 36  1  0  0  0  0
  7  8  2  0  0  0  0
  7 18  1  0  0  0  0
  8  9  1  0  0  0  0
  8 37  1  0  0  0  0
  9 10  2  0  0  0  0
  9 38  1  0  0  0  0
 10 11  1  0  0  0  0
 10 17  1  0  0  0  0
 11 12  2  0  0  0  0
 11 16  1  0  0  0  0
 12 13  1  0  0  0  0
 12 39  1  0  0  0  0
 13 14  2  0  0  0  0
 13 40  1  0  0  0  0
 14 15  1  0  0  0  0
 14 41  1  0  0  0  0
 15 16  2  0  0  0  0
 15 42  1  0  0  0  0
 16 43  1  0  0  0  0
 17 18  2  0  0  0  0
 17 44  1  0  0  0  0
 18 45  1  0  0  0  0
 19 20  2  0  0  0  0
 19 21  1  0  0  0  0
 21 22  2  0  0  0  0
 21 30  1  0  0  0  0
 22 23  1  0  0  0  0
 22 46  1  0  0  0  0
 23 24  1  0  0  0  0
 24 25  2  0  0  0  0
 24 30  1  0  0  0  0
 25 26  1  0  0  0  0
 25 47  1  0  0  0  0
 26 27  2  0  0  0  0
 26 48  1  0  0  0  0
 27 28  1  0  0  0  0
 27 29  1  0  0  0  0
 28 49  1  0  0  0  0
 29 30  2  0  0  0  0
 29 50  1  0  0  0  0
M  END
$$$$
