
 OpenBabel01122422353D

 48 51  0  0  0  0  0  0  0  0999 V2000
    0.0885    0.0079   -0.8019 O   0  0  0  0  0  0  0  0  0  0  0  0
   -0.0566    0.0461   -2.0183 C   0  0  0  0  0  0  0  0  0  0  0  0
    0.9897    0.2019   -2.8993 N   0  0  0  0  0  0  0  0  0  0  0  0
    2.3295    0.3711   -2.3848 C   0  0  0  0  0  0  0  0  0  0  0  0
    3.3109    0.6697   -3.4805 C   0  0  0  0  0  0  0  0  0  0  0  0
    3.5274    1.9921   -3.8746 C   0  0  0  0  0  0  0  0  0  0  0  0
    4.4344    2.2945   -4.8910 C   0  0  0  0  0  0  0  0  0  0  0  0
    5.1399    1.2833   -5.5437 C   0  0  0  0  0  0  0  0  0  0  0  0
    6.0772    1.5283   -6.5684 N   0  0  0  0  0  0  0  0  0  0  0  0
    6.4295    2.7522   -7.1058 C   0  0  0  0  0  0  0  0  0  0  0  0
    5.9379    3.8344   -6.8003 O   0  0  0  0  0  0  0  0  0  0  0  0
    7.5170    2.7476   -8.1394 C   0  0  0  0  0  0  0  0  0  0  0  0
    7.8797    3.9962   -8.6789 C   0  0  0  0  0  0  0  0  0  0  0  0
    8.9208    4.1086   -9.6008 C   0  0  0  0  0  0  0  0  0  0  0  0
    9.6160    2.9716   -9.9980 C   0  0  0  0  0  0  0  0  0  0  0  0
    9.2551    1.7194   -9.4936 C   0  0  0  0  0  0  0  0  0  0  0  0
    8.2066    1.6067   -8.5757 C   0  0  0  0  0  0  0  0  0  0  0  0
    7.8697    0.3593   -8.1140 O   0  0  0  0  0  0  0  0  0  0  0  0
    4.9202   -0.0448   -5.1581 C   0  0  0  0  0  0  0  0  0  0  0  0
    4.0074   -0.3511   -4.1402 C   0  0  0  0  0  0  0  0  0  0  0  0
   -1.4145   -0.0448   -2.5907 C   0  0  0  0  0  0  0  0  0  0  0  0
   -2.4836    0.3902   -1.8234 C   0  0  0  0  0  0  0  0  0  0  0  0
   -3.7726    0.3262   -2.2299 N   0  0  0  0  0  0  0  0  0  0  0  0
   -4.0102   -0.2200   -3.4379 C   0  0  0  0  0  0  0  0  0  0  0  0
   -5.3135   -0.3366   -3.8914 C   0  0  0  0  0  0  0  0  0  0  0  0
   -5.5912   -0.9167   -5.1259 C   0  0  0  0  0  0  0  0  0  0  0  0
   -4.5275   -1.3654   -5.8840 C   0  0  0  0  0  0  0  0  0  0  0  0
   -3.2382   -1.2677   -5.4938 N   0  0  0  0  0  0  0  0  0  0  0  0
   -2.9928   -0.7066   -4.2921 C   0  0  0  0  0  0  0  0  0  0  0  0
   -1.6858   -0.5997   -3.8412 C   0  0  0  0  0  0  0  0  0  0  0  0
    0.8210    0.4238   -3.8721 H   0  0  0  0  0  0  0  0  0  0  0  0
    2.6122   -0.5373   -1.8400 H   0  0  0  0  0  0  0  0  0  0  0  0
    2.3233    1.1879   -1.6516 H   0  0  0  0  0  0  0  0  0  0  0  0
    2.9977    2.8085   -3.3875 H   0  0  0  0  0  0  0  0  0  0  0  0
    4.5707    3.3407   -5.1427 H   0  0  0  0  0  0  0  0  0  0  0  0
    6.5643    0.7218   -6.9512 H   0  0  0  0  0  0  0  0  0  0  0  0
    7.3520    4.8990   -8.3726 H   0  0  0  0  0  0  0  0  0  0  0  0
    9.1895    5.0851   -9.9958 H   0  0  0  0  0  0  0  0  0  0  0  0
   10.4406    3.0613  -10.7013 H   0  0  0  0  0  0  0  0  0  0  0  0
    9.8130    0.8486   -9.8248 H   0  0  0  0  0  0  0  0  0  0  0  0
    8.4220   -0.2989   -8.5733 H   0  0  0  0  0  0  0  0  0  0  0  0
    5.4561   -0.8579   -5.6411 H   0  0  0  0  0  0  0  0  0  0  0  0
    3.8529   -1.3905   -3.8569 H   0  0  0  0  0  0  0  0  0  0  0  0
   -2.3332    0.8160   -0.8337 H   0  0  0  0  0  0  0  0  0  0  0  0
   -6.1261    0.0244   -3.2663 H   0  0  0  0  0  0  0  0  0  0  0  0
   -6.6114   -1.0168   -5.4793 H   0  0  0  0  0  0  0  0  0  0  0  0
   -4.6866   -1.8315   -6.8526 H   0  0  0  0  0  0  0  0  0  0  0  0
   -0.8891   -0.9926   -4.4653 H   0  0  0  0  0  0  0  0  0  0  0  0
  1  2  2  0  0  0  0
  2  3  1  0  0  0  0
  2 21  1  0  0  0  0
  3  4  1  0  0  0  0
  3 31  1  0  0  0  0
  4  5  1  0  0  0  0
  4 32  1  0  0  0  0
  4 33  1  0  0  0  0
  5  6  2  0  0  0  0
  5 20  1  0  0  0  0
  6  7  1  0  0  0  0
  6 34  1  0  0  0  0
  7  8  2  0  0  0  0
  7 35  1  0  0  0  0
  8  9  1  0  0  0  0
  8 19  1  0  0  0  0
  9 10  1  0  0  0  0
  9 36  1  0  0  0  0
 10 11  2  0  0  0  0
 10 12  1  0  0  0  0
 12 13  2  0  0  0  0
 12 17  1  0  0  0  0
 13 14  1  0  0  0  0
 13 37  1  0  0  0  0
 14 15  2  0  0  0  0
 14 38  1  0  0  0  0
 15 16  1  0  0  0  0
 15 39  1  0  0  0  0
 16 17  2  0  0  0  0
 16 40  1  0  0  0  0
 17 18  1  0  0  0  0
 18 41  1  0  0  0  0
 19 20  2  0  0  0  0
 19 42  1  0  0  0  0
 20 43  1  0  0  0  0
 21 22  2  0  0  0  0
 21 30  1  0  0  0  0
 22 23  1  0  0  0  0
 22 44  1  0  0  0  0
 23 24  2  0  0  0  0
 24 25  1  0  0  0  0
 24 29  1  0  0  0  0
 25 26  2  0  0  0  0
 25 45  1  0  0  0  0
 26 27  1  0  0  0  0
 26 46  1  0  0  0  0
 27 28  2  0  0  0  0
 27 47  1  0  0  0  0
 28 29  1  0  0  0  0
 29 30  2  0  0  0  0
 30 48  1  0  0  0  0
M  END
$$$$
