
 OpenBabel01122422363D

 51 54  0  0  1  0  0  0  0  0999 V2000
    1.0226   -0.0680   -0.8496 C   0  0  0  0  0  0  0  0  0  0  0  0
    2.3495   -0.0520   -0.0964 C   0  0  3  0  0  0  0  0  0  0  0  0
    2.9642   -1.3667   -0.1085 N   0  0  0  0  0  0  0  0  0  0  0  0
    2.6895   -2.2665    0.8894 C   0  0  0  0  0  0  0  0  0  0  0  0
    2.0094   -2.0001    1.8767 O   0  0  0  0  0  0  0  0  0  0  0  0
    3.2663   -3.6245    0.7415 C   0  0  0  0  0  0  0  0  0  0  0  0
    3.5847   -4.2974    1.9253 C   0  0  0  0  0  0  0  0  0  0  0  0
    3.9314   -5.6373    1.8819 C   0  0  0  0  0  0  0  0  0  0  0  0
    3.9566   -6.2996    0.6500 C   0  0  0  0  0  0  0  0  0  0  0  0
    3.9281   -7.7052    0.6835 N   0  0  0  0  0  0  0  0  0  0  0  0
    2.9606   -8.4057    1.3765 C   0  0  0  0  0  0  0  0  0  0  0  0
    3.2467   -9.7391    1.2305 C   0  0  0  0  0  0  0  0  0  0  0  0
    4.6479   -9.7572    1.0545 C   0  0  0  0  0  0  0  0  0  0  0  0
    5.6780  -10.6462    1.3970 C   0  0  0  0  0  0  0  0  0  0  0  0
    6.9717  -10.3699    0.9512 C   0  0  0  0  0  0  0  0  0  0  0  0
    7.2069   -9.3153    0.0680 C   0  0  0  0  0  0  0  0  0  0  0  0
    6.2059   -8.3872   -0.2389 C   0  0  0  0  0  0  0  0  0  0  0  0
    4.9711   -8.5674    0.3947 C   0  0  0  0  0  0  0  0  0  0  0  0
    3.7289   -5.6278   -0.5527 C   0  0  0  0  0  0  0  0  0  0  0  0
    3.3748   -4.2748   -0.5021 C   0  0  0  0  0  0  0  0  0  0  0  0
    3.3064    0.9763   -0.6500 C   0  0  0  0  0  0  0  0  0  0  0  0
    3.7661    2.0183    0.1976 C   0  0  0  0  0  0  0  0  0  0  0  0
    4.6188    3.0026   -0.2868 C   0  0  0  0  0  0  0  0  0  0  0  0
    5.0705    2.9448   -1.6103 C   0  0  0  0  0  0  0  0  0  0  0  0
    5.8725    3.9610   -2.0572 O   0  0  0  0  0  0  0  0  0  0  0  0
    4.6587    1.9079   -2.4670 C   0  0  0  0  0  0  0  0  0  0  0  0
    5.1114    1.7631   -3.8862 C   0  0  0  0  0  0  0  0  0  0  0  0
    5.9555    2.7122   -4.3739 N   0  0  0  0  0  0  0  0  0  0  0  0
    4.7477    0.8278   -4.5891 O   0  0  0  0  0  0  0  0  0  0  0  0
    3.7814    0.9315   -1.9728 C   0  0  0  0  0  0  0  0  0  0  0  0
    0.3180   -0.7548   -0.3674 H   0  0  0  0  0  0  0  0  0  0  0  0
    1.1414   -0.4023   -1.8863 H   0  0  0  0  0  0  0  0  0  0  0  0
    0.5662    0.9280   -0.8654 H   0  0  0  0  0  0  0  0  0  0  0  0
    2.1340    0.2156    0.9401 H   0  0  0  0  0  0  0  0  0  0  0  0
    3.5792   -1.6188   -0.8717 H   0  0  0  0  0  0  0  0  0  0  0  0
    3.4999   -3.7969    2.8869 H   0  0  0  0  0  0  0  0  0  0  0  0
    4.1220   -6.1737    2.8091 H   0  0  0  0  0  0  0  0  0  0  0  0
    2.1357   -7.8965    1.8573 H   0  0  0  0  0  0  0  0  0  0  0  0
    2.5884  -10.5580    1.4805 H   0  0  0  0  0  0  0  0  0  0  0  0
    5.4865  -11.4715    2.0770 H   0  0  0  0  0  0  0  0  0  0  0  0
    7.7977  -10.9901    1.2885 H   0  0  0  0  0  0  0  0  0  0  0  0
    8.2038   -9.1763   -0.3424 H   0  0  0  0  0  0  0  0  0  0  0  0
    6.4055   -7.5316   -0.8742 H   0  0  0  0  0  0  0  0  0  0  0  0
    3.7161   -6.1590   -1.5014 H   0  0  0  0  0  0  0  0  0  0  0  0
    3.0953   -3.7695   -1.4223 H   0  0  0  0  0  0  0  0  0  0  0  0
    3.4457    2.0533    1.2230 H   0  0  0  0  0  0  0  0  0  0  0  0
    4.9398    3.7901    0.3823 H   0  0  0  0  0  0  0  0  0  0  0  0
    5.9121    4.6636   -1.3796 H   0  0  0  0  0  0  0  0  0  0  0  0
    6.2835    3.4615   -3.7736 H   0  0  0  0  0  0  0  0  0  0  0  0
    6.3166    2.6216   -5.3113 H   0  0  0  0  0  0  0  0  0  0  0  0
    3.4535    0.1342   -2.6399 H   0  0  0  0  0  0  0  0  0  0  0  0
  1  2  1  0  0  0  0
  1 31  1  0  0  0  0
  1 32  1  0  0  0  0
  1 33  1  0  0  0  0
  2  3  1  0  0  0  0
  2 21  1  0  0  0  0
  2 34  1  0  0  0  0
  3  4  1  0  0  0  0
  3 35  1  0  0  0  0
  4  5  2  0  0  0  0
  4  6  1  0  0  0  0
  6  7  2  0  0  0  0
  6 20  1  0  0  0  0
  7  8  1  0  0  0  0
  7 36  1  0  0  0  0
  8  9  2  0  0  0  0
  8 37  1  0  0  0  0
  9 10  1  0  0  0  0
  9 19  1  0  0  0  0
 10 11  1  0  0  0  0
 10 18  1  0  0  0  0
 11 12  2  0  0  0  0
 11 38  1  0  0  0  0
 12 13  1  0  0  0  0
 12 39  1  0  0  0  0
 13 14  2  0  0  0  0
 13 18  1  0  0  0  0
 14 15  1  0  0  0  0
 14 40  1  0  0  0  0
 15 16  2  0  0  0  0
 15 41  1  0  0  0  0
 16 17  1  0  0  0  0
 16 42  1  0  0  0  0
 17 18  2  0  0  0  0
 17 43  1  0  0  0  0
 19 20  2  0  0  0  0
 19 44  1  0  0  0  0
 20 45  1  0  0  0  0
 21 22  2  0  0  0  0
 21 30  1  0  0  0  0
 22 23  1  0  0  0  0
 22 46  1  0  0  0  0
 23 24  2  0  0  0  0
 23 47  1  0  0  0  0
 24 25  1  0  0  0  0
 24 26  1  0  0  0  0
 25 48  1  0  0  0  0
 26 27  1  0  0  0  0
 26 30  2  0  0  0  0
 27 28  1  0  0  0  0
 27 29  2  0  0  0  0
 28 49  1  0  0  0  0
 28 50  1  0  0  0  0
 30 51  1  0  0  0  0
M  END
$$$$
