
 OpenBabel01122422363D

 49 52  0  0  0  0  0  0  0  0999 V2000
    3.7182   -0.3857    2.9532 N   0  0  0  0  0  0  0  0  0  0  0  0
    2.8408   -0.9069    2.0514 C   0  0  0  0  0  0  0  0  0  0  0  0
    1.6528   -1.0324    2.3473 O   0  0  0  0  0  0  0  0  0  0  0  0
    3.3956   -1.3378    0.6917 C   0  0  0  0  0  0  0  0  0  0  0  0
    4.8082   -1.0325    0.3993 N   0  0  0  0  0  0  0  0  0  0  0  0
    5.0767    0.2135   -0.3180 C   0  0  0  0  0  0  0  0  0  0  0  0
    5.4427    1.4182    0.5192 C   0  0  0  0  0  0  0  0  0  0  0  0
    6.7564    1.6905    0.9203 C   0  0  0  0  0  0  0  0  0  0  0  0
    7.1095    2.9430    1.4502 C   0  0  0  0  0  0  0  0  0  0  0  0
    6.1646    3.9668    1.6014 C   0  0  0  0  0  0  0  0  0  0  0  0
    6.5362    5.3434    2.0224 C   0  0  0  0  0  0  0  0  0  0  0  0
    7.7852    5.9118    1.6993 C   0  0  0  0  0  0  0  0  0  0  0  0
    8.1087    7.2254    2.0646 C   0  0  0  0  0  0  0  0  0  0  0  0
    7.1862    8.0088    2.7503 C   0  0  0  0  0  0  0  0  0  0  0  0
    5.9448    7.4777    3.0776 C   0  0  0  0  0  0  0  0  0  0  0  0
    5.6312    6.1612    2.7264 C   0  0  0  0  0  0  0  0  0  0  0  0
    4.8317    3.6428    1.2834 C   0  0  0  0  0  0  0  0  0  0  0  0
    4.4750    2.3912    0.7689 C   0  0  0  0  0  0  0  0  0  0  0  0
    5.7414   -2.0549    0.6353 C   0  0  0  0  0  0  0  0  0  0  0  0
    5.4008   -3.0966    1.2000 O   0  0  0  0  0  0  0  0  0  0  0  0
    7.1535   -1.8785    0.2472 C   0  0  0  0  0  0  0  0  0  0  0  0
    8.2169   -2.5932    0.7773 C   0  0  0  0  0  0  0  0  0  0  0  0
    9.3531   -2.0664    0.2237 N   0  0  0  0  0  0  0  0  0  0  0  0
   10.6922   -2.3636    0.4693 C   0  0  0  0  0  0  0  0  0  0  0  0
   11.6435   -1.6567   -0.1672 C   0  0  0  0  0  0  0  0  0  0  0  0
   11.2417   -0.6065   -1.0847 C   0  0  0  0  0  0  0  0  0  0  0  0
   12.2116    0.1117   -1.6825 F   0  0  0  0  0  0  0  0  0  0  0  0
    9.9483   -0.3318   -1.3335 C   0  0  0  0  0  0  0  0  0  0  0  0
    8.9425   -1.0825   -0.6670 C   0  0  0  0  0  0  0  0  0  0  0  0
    7.6335   -0.9878   -0.6952 N   0  0  0  0  0  0  0  0  0  0  0  0
    3.3623   -0.0709    3.8440 H   0  0  0  0  0  0  0  0  0  0  0  0
    4.6764   -0.1864    2.6994 H   0  0  0  0  0  0  0  0  0  0  0  0
    2.7691   -0.8739   -0.0784 H   0  0  0  0  0  0  0  0  0  0  0  0
    3.2316   -2.4189    0.6173 H   0  0  0  0  0  0  0  0  0  0  0  0
    4.1751    0.4617   -0.8970 H   0  0  0  0  0  0  0  0  0  0  0  0
    5.8130    0.0762   -1.1082 H   0  0  0  0  0  0  0  0  0  0  0  0
    7.5476    0.9654    0.7690 H   0  0  0  0  0  0  0  0  0  0  0  0
    8.1522    3.1128    1.7082 H   0  0  0  0  0  0  0  0  0  0  0  0
    8.5211    5.3478    1.1325 H   0  0  0  0  0  0  0  0  0  0  0  0
    9.0793    7.6383    1.8012 H   0  0  0  0  0  0  0  0  0  0  0  0
    7.4317    9.0306    3.0262 H   0  0  0  0  0  0  0  0  0  0  0  0
    5.2129    8.0836    3.6052 H   0  0  0  0  0  0  0  0  0  0  0  0
    4.6534    5.7818    3.0135 H   0  0  0  0  0  0  0  0  0  0  0  0
    4.0435    4.3886    1.3714 H   0  0  0  0  0  0  0  0  0  0  0  0
    3.4332    2.2168    0.5004 H   0  0  0  0  0  0  0  0  0  0  0  0
    8.2457   -3.3793    1.5191 H   0  0  0  0  0  0  0  0  0  0  0  0
   10.9083   -3.1528    1.1771 H   0  0  0  0  0  0  0  0  0  0  0  0
   12.7031   -1.8330   -0.0182 H   0  0  0  0  0  0  0  0  0  0  0  0
    9.6585    0.4618   -2.0107 H   0  0  0  0  0  0  0  0  0  0  0  0
  1  2  1  0  0  0  0
  1 31  1  0  0  0  0
  1 32  1  0  0  0  0
  2  3  2  0  0  0  0
  2  4  1  0  0  0  0
  4  5  1  0  0  0  0
  4 33  1  0  0  0  0
  4 34  1  0  0  0  0
  5  6  1  0  0  0  0
  5 19  1  0  0  0  0
  6  7  1  0  0  0  0
  6 35  1  0  0  0  0
  6 36  1  0  0  0  0
  7  8  2  0  0  0  0
  7 18  1  0  0  0  0
  8  9  1  0  0  0  0
  8 37  1  0  0  0  0
  9 10  2  0  0  0  0
  9 38  1  0  0  0  0
 10 11  1  0  0  0  0
 10 17  1  0  0  0  0
 11 12  2  0  0  0  0
 11 16  1  0  0  0  0
 12 13  1  0  0  0  0
 12 39  1  0  0  0  0
 13 14  2  0  0  0  0
 13 40  1  0  0  0  0
 14 15  1  0  0  0  0
 14 41  1  0  0  0  0
 15 16  2  0  0  0  0
 15 42  1  0  0  0  0
 16 43  1  0  0  0  0
 17 18  2  0  0  0  0
 17 44  1  0  0  0  0
 18 45  1  0  0  0  0
 19 20  2  0  0  0  0
 19 21  1  0  0  0  0
 21 22  2  0  0  0  0
 21 30  1  0  0  0  0
 22 23  1  0  0  0  0
 22 46  1  0  0  0  0
 23 24  1  0  0  0  0
 23 29  1  0  0  0  0
 24 25  2  0  0  0  0
 24 47  1  0  0  0  0
 25 26  1  0  0  0  0
 25 48  1  0  0  0  0
 26 27  1  0  0  0  0
 26 28  2  0  0  0  0
 28 29  1  0  0  0  0
 28 49  1  0  0  0  0
 29 30  2  0  0  0  0
M  END
$$$$
