
 OpenBabel01122422363D

 53 55  0  0  0  0  0  0  0  0999 V2000
    3.3877   -0.2686   -2.5946 N   0  0  0  0  0  0  0  0  0  0  0  0
    2.6180    0.4892   -1.7610 C   0  0  0  0  0  0  0  0  0  0  0  0
    1.4139    0.6129   -1.9838 O   0  0  0  0  0  0  0  0  0  0  0  0
    3.3021    1.1265   -0.5423 C   0  0  0  0  0  0  0  0  0  0  0  0
    4.7531    0.8971   -0.4375 N   0  0  0  0  0  0  0  0  0  0  0  0
    5.1853   -0.2667    0.3505 C   0  0  0  0  0  0  0  0  0  0  0  0
    5.7723    0.0489    1.7157 C   0  0  0  0  0  0  0  0  0  0  0  0
    5.8294   -0.9354    2.7098 C   0  0  0  0  0  0  0  0  0  0  0  0
    6.4091   -0.6637    3.9656 C   0  0  0  0  0  0  0  0  0  0  0  0
    7.0182    0.5721    4.2434 C   0  0  0  0  0  0  0  0  0  0  0  0
    7.5487    0.9570    5.5717 C   0  0  0  0  0  0  0  0  0  0  0  0
    8.0520    0.0235    6.4897 C   0  0  0  0  0  0  0  0  0  0  0  0
    8.5292    0.4307    7.7418 C   0  0  0  0  0  0  0  0  0  0  0  0
    8.5281    1.7775    8.0985 C   0  0  0  0  0  0  0  0  0  0  0  0
    8.0379    2.7231    7.2091 C   0  0  0  0  0  0  0  0  0  0  0  0
    7.5430    2.3124    5.9723 C   0  0  0  0  0  0  0  0  0  0  0  0
    7.0425    1.5024    3.2029 C   0  0  0  0  0  0  0  0  0  0  0  0
    6.3591    1.2789    2.0153 C   0  0  0  0  0  0  0  0  0  0  0  0
    5.5884    1.7892   -1.1085 C   0  0  0  0  0  0  0  0  0  0  0  0
    5.1102    2.7097   -1.7761 O   0  0  0  0  0  0  0  0  0  0  0  0
    7.1031    1.6601   -0.9451 C   0  0  0  0  0  0  0  0  0  0  0  0
    7.8995    1.6738   -2.2131 C   0  0  0  0  0  0  0  0  0  0  0  0
    7.8581    2.7727   -3.0752 C   0  0  0  0  0  0  0  0  0  0  0  0
    8.6501    2.7888   -4.2228 C   0  0  0  0  0  0  0  0  0  0  0  0
    9.5141    1.7245   -4.4848 C   0  0  0  0  0  0  0  0  0  0  0  0
    9.6122    0.6575   -3.5970 C   0  0  0  0  0  0  0  0  0  0  0  0
   10.4614   -0.4041   -3.7065 O   0  0  0  0  0  0  0  0  0  0  0  0
   11.6624   -0.1275   -4.4036 C   0  0  0  0  0  0  0  0  0  0  0  0
   12.5945   -1.0103   -3.9643 F   0  0  0  0  0  0  0  0  0  0  0  0
   11.4614   -0.3879   -5.7179 F   0  0  0  0  0  0  0  0  0  0  0  0
    8.7801    0.6194   -2.4790 C   0  0  0  0  0  0  0  0  0  0  0  0
    2.9418   -0.5561   -3.4574 H   0  0  0  0  0  0  0  0  0  0  0  0
    4.3848   -0.1012   -2.6296 H   0  0  0  0  0  0  0  0  0  0  0  0
    2.8160    0.7423    0.3601 H   0  0  0  0  0  0  0  0  0  0  0  0
    3.1075    2.2036   -0.5932 H   0  0  0  0  0  0  0  0  0  0  0  0
    5.9221   -0.8227   -0.2410 H   0  0  0  0  0  0  0  0  0  0  0  0
    4.3201   -0.9287    0.4794 H   0  0  0  0  0  0  0  0  0  0  0  0
    5.3957   -1.9191    2.5364 H   0  0  0  0  0  0  0  0  0  0  0  0
    6.3519   -1.4333    4.7318 H   0  0  0  0  0  0  0  0  0  0  0  0
    8.0867   -1.0335    6.2429 H   0  0  0  0  0  0  0  0  0  0  0  0
    8.9060   -0.3110    8.4407 H   0  0  0  0  0  0  0  0  0  0  0  0
    8.9037    2.0897    9.0682 H   0  0  0  0  0  0  0  0  0  0  0  0
    8.0275    3.7778    7.4720 H   0  0  0  0  0  0  0  0  0  0  0  0
    7.1393    3.0851    5.3219 H   0  0  0  0  0  0  0  0  0  0  0  0
    7.5672    2.4498    3.3061 H   0  0  0  0  0  0  0  0  0  0  0  0
    6.3078    2.1233    1.3444 H   0  0  0  0  0  0  0  0  0  0  0  0
    7.3712    0.7606   -0.3894 H   0  0  0  0  0  0  0  0  0  0  0  0
    7.4493    2.5112   -0.3448 H   0  0  0  0  0  0  0  0  0  0  0  0
    7.2165    3.6240   -2.8599 H   0  0  0  0  0  0  0  0  0  0  0  0
    8.5951    3.6358   -4.8956 H   0  0  0  0  0  0  0  0  0  0  0  0
   10.0969    1.7592   -5.4002 H   0  0  0  0  0  0  0  0  0  0  0  0
   12.0504    0.8881   -4.2635 H   0  0  0  0  0  0  0  0  0  0  0  0
    8.8559   -0.2212   -1.7913 H   0  0  0  0  0  0  0  0  0  0  0  0
  1  2  1  0  0  0  0
  1 32  1  0  0  0  0
  1 33  1  0  0  0  0
  2  3  2  0  0  0  0
  2  4  1  0  0  0  0
  4  5  1  0  0  0  0
  4 34  1  0  0  0  0
  4 35  1  0  0  0  0
  5  6  1  0  0  0  0
  5 19  1  0  0  0  0
  6  7  1  0  0  0  0
  6 36  1  0  0  0  0
  6 37  1  0  0  0  0
  7  8  2  0  0  0  0
  7 18  1  0  0  0  0
  8  9  1  0  0  0  0
  8 38  1  0  0  0  0
  9 10  2  0  0  0  0
  9 39  1  0  0  0  0
 10 11  1  0  0  0  0
 10 17  1  0  0  0  0
 11 12  2  0  0  0  0
 11 16  1  0  0  0  0
 12 13  1  0  0  0  0
 12 40  1  0  0  0  0
 13 14  2  0  0  0  0
 13 41  1  0  0  0  0
 14 15  1  0  0  0  0
 14 42  1  0  0  0  0
 15 16  2  0  0  0  0
 15 43  1  0  0  0  0
 16 44  1  0  0  0  0
 17 18  2  0  0  0  0
 17 45  1  0  0  0  0
 18 46  1  0  0  0  0
 19 20  2  0  0  0  0
 19 21  1  0  0  0  0
 21 22  1  0  0  0  0
 21 47  1  0  0  0  0
 21 48  1  0  0  0  0
 22 23  2  0  0  0  0
 22 31  1  0  0  0  0
 23 24  1  0  0  0  0
 23 49  1  0  0  0  0
 24 25  2  0  0  0  0
 24 50  1  0  0  0  0
 25 26  1  0  0  0  0
 25 51  1  0  0  0  0
 26 27  1  0  0  0  0
 26 31  2  0  0  0  0
 27 28  1  0  0  0  0
 28 29  1  0  0  0  0
 28 30  1  0  0  0  0
 28 52  1  0  0  0  0
 31 53  1  0  0  0  0
M  END
$$$$
