
 OpenBabel01122422363D

 46 49  0  0  0  0  0  0  0  0999 V2000
    1.0413    0.6017    0.4773 O   0  0  0  0  0  0  0  0  0  0  0  0
    2.1980    0.3281    0.1525 C   0  0  0  0  0  0  0  0  0  0  0  0
    2.8346    0.7358   -1.0053 N   0  0  0  0  0  0  0  0  0  0  0  0
    2.2202    1.5516   -1.9901 C   0  0  0  0  0  0  0  0  0  0  0  0
    1.0835    2.3053   -1.7044 C   0  0  0  0  0  0  0  0  0  0  0  0
    0.3969    2.9897   -2.7019 C   0  0  0  0  0  0  0  0  0  0  0  0
    0.9002    3.0248   -3.9970 C   0  0  0  0  0  0  0  0  0  0  0  0
    0.2929    3.6970   -5.0375 O   0  0  0  0  0  0  0  0  0  0  0  0
   -0.4389    4.8389   -4.7803 C   0  0  0  0  0  0  0  0  0  0  0  0
   -0.1236    5.7582   -3.7758 C   0  0  0  0  0  0  0  0  0  0  0  0
   -0.9413    6.8663   -3.5454 C   0  0  0  0  0  0  0  0  0  0  0  0
   -2.0496    7.1126   -4.3628 C   0  0  0  0  0  0  0  0  0  0  0  0
   -2.9468    8.2910   -4.0958 C   0  0  0  0  0  0  0  0  0  0  0  0
   -2.9519    9.1786   -5.2039 O   0  0  0  0  0  0  0  0  0  0  0  0
   -2.3182    6.2302   -5.4201 C   0  0  0  0  0  0  0  0  0  0  0  0
   -1.5214    5.0967   -5.6233 C   0  0  0  0  0  0  0  0  0  0  0  0
    2.0623    2.3037   -4.2921 C   0  0  0  0  0  0  0  0  0  0  0  0
    2.7290    1.5734   -3.2914 C   0  0  0  0  0  0  0  0  0  0  0  0
    2.9494   -0.5653    1.0749 C   0  0  0  0  0  0  0  0  0  0  0  0
    2.2546   -1.1071    2.1510 C   0  0  0  0  0  0  0  0  0  0  0  0
    2.9334   -1.9258    3.0344 C   0  0  0  0  0  0  0  0  0  0  0  0
    4.2901   -2.1707    2.8294 C   0  0  0  0  0  0  0  0  0  0  0  0
    4.9936   -2.9884    3.7220 C   0  0  0  0  0  0  0  0  0  0  0  0
    6.3427   -3.1925    3.5061 C   0  0  0  0  0  0  0  0  0  0  0  0
    7.0232   -2.6324    2.4896 N   0  0  0  0  0  0  0  0  0  0  0  0
    6.3000   -1.8549    1.6497 C   0  0  0  0  0  0  0  0  0  0  0  0
    7.0772   -1.2988    0.6774 O   0  0  0  0  0  0  0  0  0  0  0  0
    4.9338   -1.5739    1.7212 C   0  0  0  0  0  0  0  0  0  0  0  0
    4.2642   -0.7851    0.8316 N   0  0  0  0  0  0  0  0  0  0  0  0
    3.7324    0.3012   -1.2044 H   0  0  0  0  0  0  0  0  0  0  0  0
    0.6907    2.3911   -0.6966 H   0  0  0  0  0  0  0  0  0  0  0  0
   -0.5237    3.4969   -2.4286 H   0  0  0  0  0  0  0  0  0  0  0  0
    0.7429    5.6101   -3.1373 H   0  0  0  0  0  0  0  0  0  0  0  0
   -0.7048    7.5278   -2.7155 H   0  0  0  0  0  0  0  0  0  0  0  0
   -2.6118    8.8538   -3.2179 H   0  0  0  0  0  0  0  0  0  0  0  0
   -3.9695    7.9520   -3.9028 H   0  0  0  0  0  0  0  0  0  0  0  0
   -2.0212    9.3451   -5.4317 H   0  0  0  0  0  0  0  0  0  0  0  0
   -3.1600    6.4206   -6.0842 H   0  0  0  0  0  0  0  0  0  0  0  0
   -1.7547    4.4131   -6.4361 H   0  0  0  0  0  0  0  0  0  0  0  0
    2.4440    2.2965   -5.3105 H   0  0  0  0  0  0  0  0  0  0  0  0
    3.6151    1.0035   -3.5577 H   0  0  0  0  0  0  0  0  0  0  0  0
    1.2005   -0.8920    2.3015 H   0  0  0  0  0  0  0  0  0  0  0  0
    2.3965   -2.3487    3.8799 H   0  0  0  0  0  0  0  0  0  0  0  0
    4.5032   -3.4554    4.5711 H   0  0  0  0  0  0  0  0  0  0  0  0
    6.9236   -3.8264    4.1702 H   0  0  0  0  0  0  0  0  0  0  0  0
    7.9506   -1.6226    0.9599 H   0  0  0  0  0  0  0  0  0  0  0  0
  1  2  2  0  0  0  0
  2  3  1  0  0  0  0
  2 19  1  0  0  0  0
  3  4  1  0  0  0  0
  3 30  1  0  0  0  0
  4  5  2  0  0  0  0
  4 18  1  0  0  0  0
  5  6  1  0  0  0  0
  5 31  1  0  0  0  0
  6  7  2  0  0  0  0
  6 32  1  0  0  0  0
  7  8  1  0  0  0  0
  7 17  1  0  0  0  0
  8  9  1  0  0  0  0
  9 10  2  0  0  0  0
  9 16  1  0  0  0  0
 10 11  1  0  0  0  0
 10 33  1  0  0  0  0
 11 12  2  0  0  0  0
 11 34  1  0  0  0  0
 12 13  1  0  0  0  0
 12 15  1  0  0  0  0
 13 14  1  0  0  0  0
 13 35  1  0  0  0  0
 13 36  1  0  0  0  0
 14 37  1  0  0  0  0
 15 16  2  0  0  0  0
 15 38  1  0  0  0  0
 16 39  1  0  0  0  0
 17 18  2  0  0  0  0
 17 40  1  0  0  0  0
 18 41  1  0  0  0  0
 19 20  2  0  0  0  0
 19 29  1  0  0  0  0
 20 21  1  0  0  0  0
 20 42  1  0  0  0  0
 21 22  2  0  0  0  0
 21 43  1  0  0  0  0
 22 23  1  0  0  0  0
 22 28  1  0  0  0  0
 23 24  2  0  0  0  0
 23 44  1  0  0  0  0
 24 25  1  0  0  0  0
 24 45  1  0  0  0  0
 25 26  2  0  0  0  0
 26 27  1  0  0  0  0
 26 28  1  0  0  0  0
 27 46  1  0  0  0  0
 28 29  2  0  0  0  0
M  END
$$$$
