
 OpenBabel01122422363D

 50 53  0  0  0  0  0  0  0  0999 V2000
    7.1582   -1.2542    2.7709 C   0  0  0  0  0  0  0  0  0  0  0  0
    6.1090   -0.3645    2.3749 O   0  0  0  0  0  0  0  0  0  0  0  0
    5.0083   -0.9515    1.7879 C   0  0  0  0  0  0  0  0  0  0  0  0
    4.8297   -2.3491    1.7032 C   0  0  0  0  0  0  0  0  0  0  0  0
    3.6903   -2.9292    1.1174 C   0  0  0  0  0  0  0  0  0  0  0  0
    3.5210   -4.3974    1.0585 C   0  0  0  0  0  0  0  0  0  0  0  0
    2.8514   -5.0413    0.0155 C   0  0  0  0  0  0  0  0  0  0  0  0
    2.6839   -6.4245    0.0581 C   0  0  0  0  0  0  0  0  0  0  0  0
    3.1906   -7.1372    1.1348 C   0  0  0  0  0  0  0  0  0  0  0  0
    3.8628   -6.4350    2.1191 C   0  0  0  0  0  0  0  0  0  0  0  0
    4.0433   -5.0947    2.1005 N   0  0  0  0  0  0  0  0  0  0  0  0
    2.7214   -2.0539    0.6197 C   0  0  0  0  0  0  0  0  0  0  0  0
    2.8791   -0.6654    0.6975 C   0  0  0  0  0  0  0  0  0  0  0  0
    4.0124   -0.0871    1.2797 C   0  0  0  0  0  0  0  0  0  0  0  0
    4.1818    1.3317    1.3509 N   0  0  0  0  0  0  0  0  0  0  0  0
    3.2251    2.2928    1.0490 C   0  0  0  0  0  0  0  0  0  0  0  0
    2.0660    2.0719    0.6870 O   0  0  0  0  0  0  0  0  0  0  0  0
    3.6938    3.7499    1.1204 C   0  0  0  0  0  0  0  0  0  0  0  0
    4.0353    4.2752   -0.1980 N   0  0  0  0  0  0  0  0  0  0  0  0
    5.3457    4.3049   -0.5810 C   0  0  0  0  0  0  0  0  0  0  0  0
    6.2332    3.9497    0.2015 O   0  0  0  0  0  0  0  0  0  0  0  0
    5.6903    4.7300   -1.9176 C   0  0  0  0  0  0  0  0  0  0  0  0
    5.0163    5.1339   -3.0583 C   0  0  0  0  0  0  0  0  0  0  0  0
    5.9795    5.2944   -4.1145 C   0  0  0  0  0  0  0  0  0  0  0  0
    5.9240    5.6136   -5.4904 C   0  0  0  0  0  0  0  0  0  0  0  0
    7.1063    5.6026   -6.2508 C   0  0  0  0  0  0  0  0  0  0  0  0
    8.3347    5.3057   -5.6618 C   0  0  0  0  0  0  0  0  0  0  0  0
    8.4206    5.0278   -4.2984 C   0  0  0  0  0  0  0  0  0  0  0  0
    7.2292    5.0257   -3.5668 C   0  0  0  0  0  0  0  0  0  0  0  0
    7.0302    4.7616   -2.2413 N   0  0  0  0  0  0  0  0  0  0  0  0
    7.9607   -0.6634    3.2212 H   0  0  0  0  0  0  0  0  0  0  0  0
    7.5749   -1.7746    1.9009 H   0  0  0  0  0  0  0  0  0  0  0  0
    6.8206   -1.9694    3.5306 H   0  0  0  0  0  0  0  0  0  0  0  0
    5.5726   -3.0351    2.1011 H   0  0  0  0  0  0  0  0  0  0  0  0
    2.4641   -4.4839   -0.8308 H   0  0  0  0  0  0  0  0  0  0  0  0
    2.1571   -6.9369   -0.7420 H   0  0  0  0  0  0  0  0  0  0  0  0
    3.0668   -8.2121    1.2056 H   0  0  0  0  0  0  0  0  0  0  0  0
    4.2837   -6.9458    2.9802 H   0  0  0  0  0  0  0  0  0  0  0  0
    1.8023   -2.4333    0.1767 H   0  0  0  0  0  0  0  0  0  0  0  0
    2.0828   -0.0635    0.2743 H   0  0  0  0  0  0  0  0  0  0  0  0
    5.0953    1.6317    1.6851 H   0  0  0  0  0  0  0  0  0  0  0  0
    4.5262    3.8525    1.8232 H   0  0  0  0  0  0  0  0  0  0  0  0
    2.8653    4.3539    1.5077 H   0  0  0  0  0  0  0  0  0  0  0  0
    3.3003    4.4606   -0.8662 H   0  0  0  0  0  0  0  0  0  0  0  0
    3.9447    5.2571   -3.1661 H   0  0  0  0  0  0  0  0  0  0  0  0
    4.9782    5.8405   -5.9738 H   0  0  0  0  0  0  0  0  0  0  0  0
    7.0689    5.8174   -7.3157 H   0  0  0  0  0  0  0  0  0  0  0  0
    9.2402    5.2856   -6.2655 H   0  0  0  0  0  0  0  0  0  0  0  0
    9.3727    4.7996   -3.8302 H   0  0  0  0  0  0  0  0  0  0  0  0
    7.7566    4.5397   -1.5768 H   0  0  0  0  0  0  0  0  0  0  0  0
  1  2  1  0  0  0  0
  1 31  1  0  0  0  0
  1 32  1  0  0  0  0
  1 33  1  0  0  0  0
  2  3  1  0  0  0  0
  3  4  2  0  0  0  0
  3 14  1  0  0  0  0
  4  5  1  0  0  0  0
  4 34  1  0  0  0  0
  5  6  1  0  0  0  0
  5 12  2  0  0  0  0
  6  7  2  0  0  0  0
  6 11  1  0  0  0  0
  7  8  1  0  0  0  0
  7 35  1  0  0  0  0
  8  9  2  0  0  0  0
  8 36  1  0  0  0  0
  9 10  1  0  0  0  0
  9 37  1  0  0  0  0
 10 11  2  0  0  0  0
 10 38  1  0  0  0  0
 12 13  1  0  0  0  0
 12 39  1  0  0  0  0
 13 14  2  0  0  0  0
 13 40  1  0  0  0  0
 14 15  1  0  0  0  0
 15 16  1  0  0  0  0
 15 41  1  0  0  0  0
 16 17  2  0  0  0  0
 16 18  1  0  0  0  0
 18 19  1  0  0  0  0
 18 42  1  0  0  0  0
 18 43  1  0  0  0  0
 19 20  1  0  0  0  0
 19 44  1  0  0  0  0
 20 21  2  0  0  0  0
 20 22  1  0  0  0  0
 22 23  2  0  0  0  0
 22 30  1  0  0  0  0
 23 24  1  0  0  0  0
 23 45  1  0  0  0  0
 24 25  2  0  0  0  0
 24 29  1  0  0  0  0
 25 26  1  0  0  0  0
 25 46  1  0  0  0  0
 26 27  2  0  0  0  0
 26 47  1  0  0  0  0
 27 28  1  0  0  0  0
 27 48  1  0  0  0  0
 28 29  2  0  0  0  0
 28 49  1  0  0  0  0
 29 30  1  0  0  0  0
 30 50  1  0  0  0  0
M  END
$$$$
