
 OpenBabel01122422353D

 46 49  0  0  0  0  0  0  0  0999 V2000
    2.3872   -2.1725   -0.1286 C   0  0  0  0  0  0  0  0  0  0  0  0
    3.1156   -0.8898    0.0451 C   0  0  0  0  0  0  0  0  0  0  0  0
    4.4754   -0.6957    0.1293 C   0  0  0  0  0  0  0  0  0  0  0  0
    4.6782    0.6992    0.0896 C   0  0  0  0  0  0  0  0  0  0  0  0
    5.9923    1.3570    0.0822 C   0  0  0  0  0  0  0  0  0  0  0  0
    7.0219    0.6944   -0.0260 O   0  0  0  0  0  0  0  0  0  0  0  0
    5.9605    2.7285    0.2599 N   0  0  0  0  0  0  0  0  0  0  0  0
    7.0472    3.5852    0.2760 C   0  0  0  0  0  0  0  0  0  0  0  0
    8.2532    3.2977   -0.2378 C   0  0  0  0  0  0  0  0  0  0  0  0
    9.3535    4.2153   -0.1437 C   0  0  0  0  0  0  0  0  0  0  0  0
    9.2131    5.3600    0.5293 C   0  0  0  0  0  0  0  0  0  0  0  0
    8.0001    5.7358    1.0949 N   0  0  0  0  0  0  0  0  0  0  0  0
    7.9261    6.9153    1.9014 C   0  0  0  0  0  0  0  0  0  0  0  0
    8.8952    7.1441    2.8917 C   0  0  0  0  0  0  0  0  0  0  0  0
    8.7975    8.2500    3.7382 C   0  0  0  0  0  0  0  0  0  0  0  0
    7.7570    9.1611    3.5738 C   0  0  0  0  0  0  0  0  0  0  0  0
    6.8133    8.9657    2.5665 C   0  0  0  0  0  0  0  0  0  0  0  0
    6.8883    7.8395    1.7430 C   0  0  0  0  0  0  0  0  0  0  0  0
    6.8444    4.9305    0.9533 C   0  0  0  0  0  0  0  0  0  0  0  0
    5.7240    5.1875    1.4024 O   0  0  0  0  0  0  0  0  0  0  0  0
    3.5083    1.3543    0.0163 N   0  0  0  0  0  0  0  0  0  0  0  0
    2.5520    0.3816    0.0101 N   0  0  0  0  0  0  0  0  0  0  0  0
    1.1747    0.7176   -0.0261 C   0  0  0  0  0  0  0  0  0  0  0  0
    0.2320   -0.0646    0.6591 C   0  0  0  0  0  0  0  0  0  0  0  0
   -1.1321    0.2188    0.5566 C   0  0  0  0  0  0  0  0  0  0  0  0
   -1.5645    1.2889   -0.2221 C   0  0  0  0  0  0  0  0  0  0  0  0
   -0.6297    2.0938   -0.8734 C   0  0  0  0  0  0  0  0  0  0  0  0
    0.7345    1.8173   -0.7647 C   0  0  0  0  0  0  0  0  0  0  0  0
    1.5825    2.5842   -1.4644 F   0  0  0  0  0  0  0  0  0  0  0  0
    3.0897   -2.9850   -0.3452 H   0  0  0  0  0  0  0  0  0  0  0  0
    1.6870   -2.1189   -0.9682 H   0  0  0  0  0  0  0  0  0  0  0  0
    1.8501   -2.4556    0.7792 H   0  0  0  0  0  0  0  0  0  0  0  0
    5.2434   -1.4616    0.1553 H   0  0  0  0  0  0  0  0  0  0  0  0
    5.0623    3.1222    0.5428 H   0  0  0  0  0  0  0  0  0  0  0  0
    8.4570    2.3646   -0.7505 H   0  0  0  0  0  0  0  0  0  0  0  0
   10.2960    3.9432   -0.6084 H   0  0  0  0  0  0  0  0  0  0  0  0
   10.0418    6.0569    0.6156 H   0  0  0  0  0  0  0  0  0  0  0  0
    9.6941    6.4265    3.0604 H   0  0  0  0  0  0  0  0  0  0  0  0
    9.5212    8.3875    4.5373 H   0  0  0  0  0  0  0  0  0  0  0  0
    7.6749   10.0185    4.2367 H   0  0  0  0  0  0  0  0  0  0  0  0
    6.0080    9.6822    2.4284 H   0  0  0  0  0  0  0  0  0  0  0  0
    6.1412    7.7022    0.9652 H   0  0  0  0  0  0  0  0  0  0  0  0
    0.5352   -0.8710    1.3192 H   0  0  0  0  0  0  0  0  0  0  0  0
   -1.8546   -0.3958    1.0894 H   0  0  0  0  0  0  0  0  0  0  0  0
   -2.6270    1.4992   -0.3159 H   0  0  0  0  0  0  0  0  0  0  0  0
   -0.9557    2.9304   -1.4842 H   0  0  0  0  0  0  0  0  0  0  0  0
  1  2  1  0  0  0  0
  1 30  1  0  0  0  0
  1 31  1  0  0  0  0
  1 32  1  0  0  0  0
  2  3  2  0  0  0  0
  2 22  1  0  0  0  0
  3  4  1  0  0  0  0
  3 33  1  0  0  0  0
  4  5  1  0  0  0  0
  4 21  2  0  0  0  0
  5  6  2  0  0  0  0
  5  7  1  0  0  0  0
  7  8  1  0  0  0  0
  7 34  1  0  0  0  0
  8  9  2  0  0  0  0
  8 19  1  0  0  0  0
  9 10  1  0  0  0  0
  9 35  1  0  0  0  0
 10 11  2  0  0  0  0
 10 36  1  0  0  0  0
 11 12  1  0  0  0  0
 11 37  1  0  0  0  0
 12 13  1  0  0  0  0
 12 19  1  0  0  0  0
 13 14  2  0  0  0  0
 13 18  1  0  0  0  0
 14 15  1  0  0  0  0
 14 38  1  0  0  0  0
 15 16  2  0  0  0  0
 15 39  1  0  0  0  0
 16 17  1  0  0  0  0
 16 40  1  0  0  0  0
 17 18  2  0  0  0  0
 17 41  1  0  0  0  0
 18 42  1  0  0  0  0
 19 20  2  0  0  0  0
 21 22  1  0  0  0  0
 22 23  1  0  0  0  0
 23 24  2  0  0  0  0
 23 28  1  0  0  0  0
 24 25  1  0  0  0  0
 24 43  1  0  0  0  0
 25 26  2  0  0  0  0
 25 44  1  0  0  0  0
 26 27  1  0  0  0  0
 26 45  1  0  0  0  0
 27 28  2  0  0  0  0
 27 46  1  0  0  0  0
 28 29  1  0  0  0  0
M  END
$$$$
