
 OpenBabel01122422363D

 52 55  0  0  1  0  0  0  0  0999 V2000
    5.2233    1.5426    0.4443 N   0  0  0  0  0  0  0  0  0  0  0  0
    4.0213    0.6578    0.3941 C   0  0  1  0  0  0  0  0  0  0  0  0
    2.6833    1.4150    0.4326 C   0  0  0  0  0  0  0  0  0  0  0  0
    2.4134    2.3993   -0.6879 C   0  0  0  0  0  0  0  0  0  0  0  0
    1.7583    1.9440   -1.8394 C   0  0  0  0  0  0  0  0  0  0  0  0
    1.4196    2.8330   -2.8515 C   0  0  0  0  0  0  0  0  0  0  0  0
    1.7200    4.1853   -2.7152 C   0  0  0  0  0  0  0  0  0  0  0  0
    2.3586    4.6779   -1.5704 C   0  0  0  0  0  0  0  0  0  0  0  0
    2.6146    6.0626   -1.3889 N   0  0  0  0  0  0  0  0  0  0  0  0
    1.9868    7.0821   -2.0911 C   0  0  0  0  0  0  0  0  0  0  0  0
    1.1084    6.9185   -2.9409 O   0  0  0  0  0  0  0  0  0  0  0  0
    2.3761    8.4392   -1.7680 C   0  0  0  0  0  0  0  0  0  0  0  0
    3.2771    8.9356   -0.8460 C   0  0  0  0  0  0  0  0  0  0  0  0
    4.1016    8.3171    0.0565 N   0  0  0  0  0  0  0  0  0  0  0  0
    4.9022    9.0929    0.7386 C   0  0  0  0  0  0  0  0  0  0  0  0
    5.8527    8.4946    1.7156 C   0  0  0  0  0  0  0  0  0  0  0  0
    7.0996    9.0821    1.9685 C   0  0  0  0  0  0  0  0  0  0  0  0
    7.9492    8.5324    2.9269 C   0  0  0  0  0  0  0  0  0  0  0  0
    7.5678    7.3838    3.6179 C   0  0  0  0  0  0  0  0  0  0  0  0
    6.3435    6.7737    3.3432 C   0  0  0  0  0  0  0  0  0  0  0  0
    5.4864    7.3239    2.3894 C   0  0  0  0  0  0  0  0  0  0  0  0
    4.9342   10.5876    0.6345 C   0  0  0  0  0  0  0  0  0  0  0  0
    4.0905   11.1478   -0.2456 C   0  0  0  0  0  0  0  0  0  0  0  0
    4.0165   12.6126   -0.4961 C   0  0  0  0  0  0  0  0  0  0  0  0
    3.1116   13.1956    0.3353 F   0  0  0  0  0  0  0  0  0  0  0  0
    5.2121   13.2053   -0.2054 F   0  0  0  0  0  0  0  0  0  0  0  0
    3.2563   10.3332   -0.9988 N   0  0  0  0  0  0  0  0  0  0  0  0
    2.3823   10.7242   -1.9530 N   0  0  0  0  0  0  0  0  0  0  0  0
    1.8668    9.5886   -2.4108 C   0  0  0  0  0  0  0  0  0  0  0  0
    2.7347    3.7666   -0.5717 C   0  0  0  0  0  0  0  0  0  0  0  0
    4.1486   -0.2943   -0.8081 C   0  0  0  0  0  0  0  0  0  0  0  0
    3.2286   -0.8680   -1.3675 O   0  0  0  0  0  0  0  0  0  0  0  0
    5.4532   -0.4888   -1.1485 O   0  0  0  0  0  0  0  0  0  0  0  0
    5.0584    2.2423    1.1747 H   0  0  0  0  0  0  0  0  0  0  0  0
    5.2386    2.0962   -0.4200 H   0  0  0  0  0  0  0  0  0  0  0  0
    4.0670    0.0126    1.2807 H   0  0  0  0  0  0  0  0  0  0  0  0
    2.5994    1.9506    1.3889 H   0  0  0  0  0  0  0  0  0  0  0  0
    1.8626    0.6823    0.4550 H   0  0  0  0  0  0  0  0  0  0  0  0
    1.4859    0.8939   -1.9612 H   0  0  0  0  0  0  0  0  0  0  0  0
    0.9047    2.4820   -3.7434 H   0  0  0  0  0  0  0  0  0  0  0  0
    1.4385    4.8321   -3.5392 H   0  0  0  0  0  0  0  0  0  0  0  0
    3.2270    6.3519   -0.6310 H   0  0  0  0  0  0  0  0  0  0  0  0
    7.4361    9.9604    1.4259 H   0  0  0  0  0  0  0  0  0  0  0  0
    8.9080    9.0019    3.1323 H   0  0  0  0  0  0  0  0  0  0  0  0
    8.2300    6.9615    4.3692 H   0  0  0  0  0  0  0  0  0  0  0  0
    6.0540    5.8740    3.8806 H   0  0  0  0  0  0  0  0  0  0  0  0
    4.5295    6.8480    2.1903 H   0  0  0  0  0  0  0  0  0  0  0  0
    5.5883   11.1867    1.2566 H   0  0  0  0  0  0  0  0  0  0  0  0
    3.7717   12.8761   -1.5282 H   0  0  0  0  0  0  0  0  0  0  0  0
    1.1346    9.6264   -3.2104 H   0  0  0  0  0  0  0  0  0  0  0  0
    3.2194    4.1261    0.3340 H   0  0  0  0  0  0  0  0  0  0  0  0
    6.0010    0.0640   -0.5392 H   0  0  0  0  0  0  0  0  0  0  0  0
  1  2  1  0  0  0  0
  1 34  1  0  0  0  0
  1 35  1  0  0  0  0
  2  3  1  0  0  0  0
  2 31  1  0  0  0  0
  2 36  1  1  0  0  0
  3  4  1  0  0  0  0
  3 37  1  0  0  0  0
  3 38  1  0  0  0  0
  4  5  2  0  0  0  0
  4 30  1  0  0  0  0
  5  6  1  0  0  0  0
  5 39  1  0  0  0  0
  6  7  2  0  0  0  0
  6 40  1  0  0  0  0
  7  8  1  0  0  0  0
  7 41  1  0  0  0  0
  8  9  1  0  0  0  0
  8 30  2  0  0  0  0
  9 10  1  0  0  0  0
  9 42  1  0  0  0  0
 10 11  2  0  0  0  0
 10 12  1  0  0  0  0
 12 13  2  0  0  0  0
 12 29  1  0  0  0  0
 13 14  1  0  0  0  0
 13 27  1  0  0  0  0
 14 15  2  0  0  0  0
 15 16  1  0  0  0  0
 15 22  1  0  0  0  0
 16 17  2  0  0  0  0
 16 21  1  0  0  0  0
 17 18  1  0  0  0  0
 17 43  1  0  0  0  0
 18 19  2  0  0  0  0
 18 44  1  0  0  0  0
 19 20  1  0  0  0  0
 19 45  1  0  0  0  0
 20 21  2  0  0  0  0
 20 46  1  0  0  0  0
 21 47  1  0  0  0  0
 22 23  2  0  0  0  0
 22 48  1  0  0  0  0
 23 24  1  0  0  0  0
 23 27  1  0  0  0  0
 24 25  1  0  0  0  0
 24 26  1  0  0  0  0
 24 49  1  0  0  0  0
 27 28  1  0  0  0  0
 28 29  2  0  0  0  0
 29 50  1  0  0  0  0
 30 51  1  0  0  0  0
 31 32  2  0  0  0  0
 31 33  1  0  0  0  0
 33 52  1  0  0  0  0
M  END
$$$$
