
 OpenBabel01122422363D

 47 50  0  0  0  0  0  0  0  0999 V2000
    2.4844   -0.2828    1.4453 O   0  0  0  0  0  0  0  0  0  0  0  0
    2.0614   -0.4701    0.3060 C   0  0  0  0  0  0  0  0  0  0  0  0
    0.5587   -0.4640    0.0254 C   0  0  0  0  0  0  0  0  0  0  0  0
    0.0587    0.8682   -0.2432 N   0  0  0  0  0  0  0  0  0  0  0  0
    0.0285    1.3868   -1.5172 C   0  0  0  0  0  0  0  0  0  0  0  0
    0.4849    0.7818   -2.4833 O   0  0  0  0  0  0  0  0  0  0  0  0
   -0.5994    2.7447   -1.6442 C   0  0  0  0  0  0  0  0  0  0  0  0
   -0.7396    3.3159   -2.9029 C   0  0  0  0  0  0  0  0  0  0  0  0
   -1.3299    4.5733   -2.9947 C   0  0  0  0  0  0  0  0  0  0  0  0
   -1.7573    5.2125   -1.8344 C   0  0  0  0  0  0  0  0  0  0  0  0
   -1.5818    4.5627   -0.6202 C   0  0  0  0  0  0  0  0  0  0  0  0
   -1.0137    3.3422   -0.4898 N   0  0  0  0  0  0  0  0  0  0  0  0
    2.8413   -0.6294   -0.8321 N   0  0  0  0  0  0  0  0  0  0  0  0
    4.2431   -0.8065   -0.8590 C   0  0  0  0  0  0  0  0  0  0  0  0
    4.9882   -1.1678    0.2675 C   0  0  0  0  0  0  0  0  0  0  0  0
    6.3789   -1.3133    0.1919 C   0  0  0  0  0  0  0  0  0  0  0  0
    7.0527   -1.0875   -1.0055 C   0  0  0  0  0  0  0  0  0  0  0  0
    8.4441   -1.1988   -1.0284 N   0  0  0  0  0  0  0  0  0  0  0  0
    9.0510   -0.9012   -2.1306 C   0  0  0  0  0  0  0  0  0  0  0  0
    8.4526   -0.5084   -3.3119 N   0  0  0  0  0  0  0  0  0  0  0  0
    9.2657   -0.1809   -4.4626 C   0  0  0  0  0  0  0  0  0  0  0  0
    8.7987    0.6870   -5.4641 C   0  0  0  0  0  0  0  0  0  0  0  0
    9.5750    1.0022   -6.5853 C   0  0  0  0  0  0  0  0  0  0  0  0
   10.8470    0.4632   -6.7278 C   0  0  0  0  0  0  0  0  0  0  0  0
   11.3437   -0.3850   -5.7454 C   0  0  0  0  0  0  0  0  0  0  0  0
   10.5631   -0.7028   -4.6257 C   0  0  0  0  0  0  0  0  0  0  0  0
    7.0518   -0.4632   -3.3812 C   0  0  0  0  0  0  0  0  0  0  0  0
    6.3760   -0.2546   -4.3878 O   0  0  0  0  0  0  0  0  0  0  0  0
    6.3143   -0.7376   -2.1296 C   0  0  0  0  0  0  0  0  0  0  0  0
    4.9128   -0.6237   -2.0721 C   0  0  0  0  0  0  0  0  0  0  0  0
    0.0404   -0.8527    0.9056 H   0  0  0  0  0  0  0  0  0  0  0  0
    0.3340   -1.1288   -0.8180 H   0  0  0  0  0  0  0  0  0  0  0  0
   -0.2419    1.4716    0.5183 H   0  0  0  0  0  0  0  0  0  0  0  0
   -0.4021    2.7928   -3.7915 H   0  0  0  0  0  0  0  0  0  0  0  0
   -1.4526    5.0504   -3.9636 H   0  0  0  0  0  0  0  0  0  0  0  0
   -2.2158    6.1950   -1.8763 H   0  0  0  0  0  0  0  0  0  0  0  0
   -1.9000    5.0297    0.3083 H   0  0  0  0  0  0  0  0  0  0  0  0
    2.3714   -0.4509   -1.7192 H   0  0  0  0  0  0  0  0  0  0  0  0
    4.5140   -1.3536    1.2270 H   0  0  0  0  0  0  0  0  0  0  0  0
    6.9402   -1.5894    1.0814 H   0  0  0  0  0  0  0  0  0  0  0  0
   10.1481   -0.9332   -2.1253 H   0  0  0  0  0  0  0  0  0  0  0  0
    7.8259    1.1666   -5.3904 H   0  0  0  0  0  0  0  0  0  0  0  0
    9.1766    1.6715   -7.3440 H   0  0  0  0  0  0  0  0  0  0  0  0
   11.4461    0.7010   -7.6027 H   0  0  0  0  0  0  0  0  0  0  0  0
   12.3368   -0.8147   -5.8539 H   0  0  0  0  0  0  0  0  0  0  0  0
   10.9938   -1.4081   -3.9210 H   0  0  0  0  0  0  0  0  0  0  0  0
    4.3633   -0.3581   -2.9725 H   0  0  0  0  0  0  0  0  0  0  0  0
  1  2  2  0  0  0  0
  2  3  1  0  0  0  0
  2 13  1  0  0  0  0
  3  4  1  0  0  0  0
  3 31  1  0  0  0  0
  3 32  1  0  0  0  0
  4  5  1  0  0  0  0
  4 33  1  0  0  0  0
  5  6  2  0  0  0  0
  5  7  1  0  0  0  0
  7  8  2  0  0  0  0
  7 12  1  0  0  0  0
  8  9  1  0  0  0  0
  8 34  1  0  0  0  0
  9 10  2  0  0  0  0
  9 35  1  0  0  0  0
 10 11  1  0  0  0  0
 10 36  1  0  0  0  0
 11 12  2  0  0  0  0
 11 37  1  0  0  0  0
 13 14  1  0  0  0  0
 13 38  1  0  0  0  0
 14 15  2  0  0  0  0
 14 30  1  0  0  0  0
 15 16  1  0  0  0  0
 15 39  1  0  0  0  0
 16 17  2  0  0  0  0
 16 40  1  0  0  0  0
 17 18  1  0  0  0  0
 17 29  1  0  0  0  0
 18 19  2  0  0  0  0
 19 20  1  0  0  0  0
 19 41  1  0  0  0  0
 20 21  1  0  0  0  0
 20 27  1  0  0  0  0
 21 22  2  0  0  0  0
 21 26  1  0  0  0  0
 22 23  1  0  0  0  0
 22 42  1  0  0  0  0
 23 24  2  0  0  0  0
 23 43  1  0  0  0  0
 24 25  1  0  0  0  0
 24 44  1  0  0  0  0
 25 26  2  0  0  0  0
 25 45  1  0  0  0  0
 26 46  1  0  0  0  0
 27 28  2  0  0  0  0
 27 29  1  0  0  0  0
 29 30  2  0  0  0  0
 30 47  1  0  0  0  0
M  END
$$$$
