
 OpenBabel01122422363D

 48 51  0  0  0  0  0  0  0  0999 V2000
    1.1584   -0.9512    1.7893 C   0  0  0  0  0  0  0  0  0  0  0  0
    2.5786   -0.8556    1.9148 O   0  0  0  0  0  0  0  0  0  0  0  0
    3.1176    0.2621    1.3573 C   0  0  0  0  0  0  0  0  0  0  0  0
    2.4855    1.1415    0.7967 O   0  0  0  0  0  0  0  0  0  0  0  0
    4.6008    0.2478    1.5522 C   0  0  0  0  0  0  0  0  0  0  0  0
    5.2385   -1.0041    1.5283 C   0  0  0  0  0  0  0  0  0  0  0  0
    6.6074   -1.0928    1.7161 C   0  0  0  0  0  0  0  0  0  0  0  0
    7.3535    0.0689    1.8940 C   0  0  0  0  0  0  0  0  0  0  0  0
    6.7744    1.3575    1.8642 C   0  0  0  0  0  0  0  0  0  0  0  0
    7.5589    2.5477    1.9792 C   0  0  0  0  0  0  0  0  0  0  0  0
    9.0727    2.5367    2.0830 C   0  0  0  0  0  0  0  0  0  0  0  0
    9.7061    2.0592    0.8673 N   0  0  0  0  0  0  0  0  0  0  0  0
   10.6179    1.0248    0.8928 C   0  0  0  0  0  0  0  0  0  0  0  0
   10.9612    0.4503    1.9200 O   0  0  0  0  0  0  0  0  0  0  0  0
   11.1576    0.5599   -0.3927 C   0  0  0  0  0  0  0  0  0  0  0  0
   11.3415    1.3560   -1.4972 C   0  0  0  0  0  0  0  0  0  0  0  0
   11.8574    0.9062   -2.6632 N   0  0  0  0  0  0  0  0  0  0  0  0
   12.2220   -0.3970   -2.7149 C   0  0  0  0  0  0  0  0  0  0  0  0
   12.8512   -0.9089   -3.9576 C   0  0  0  0  0  0  0  0  0  0  0  0
   13.6973   -2.0226   -3.9401 C   0  0  0  0  0  0  0  0  0  0  0  0
   14.3078   -2.4437   -5.1201 C   0  0  0  0  0  0  0  0  0  0  0  0
   14.0507   -1.7581   -6.2988 C   0  0  0  0  0  0  0  0  0  0  0  0
   13.1884   -0.6776   -6.2491 C   0  0  0  0  0  0  0  0  0  0  0  0
   12.5928   -0.2400   -5.1183 N   0  0  0  0  0  0  0  0  0  0  0  0
   12.0987   -1.2521   -1.6727 N   0  0  0  0  0  0  0  0  0  0  0  0
   11.5665   -0.7486   -0.5353 C   0  0  0  0  0  0  0  0  0  0  0  0
    6.9234    3.8005    2.0098 C   0  0  0  0  0  0  0  0  0  0  0  0
    5.5424    3.8930    1.9273 C   0  0  0  0  0  0  0  0  0  0  0  0
    4.7774    2.7383    1.7825 C   0  0  0  0  0  0  0  0  0  0  0  0
    5.3571    1.4483    1.7255 C   0  0  0  0  0  0  0  0  0  0  0  0
    0.8515   -1.9323    2.1624 H   0  0  0  0  0  0  0  0  0  0  0  0
    0.8504   -0.8707    0.7419 H   0  0  0  0  0  0  0  0  0  0  0  0
    0.6754   -0.1806    2.3974 H   0  0  0  0  0  0  0  0  0  0  0  0
    4.6720   -1.9175    1.3677 H   0  0  0  0  0  0  0  0  0  0  0  0
    7.0975   -2.0631    1.7265 H   0  0  0  0  0  0  0  0  0  0  0  0
    8.4184   -0.0602    2.0693 H   0  0  0  0  0  0  0  0  0  0  0  0
    9.3847    1.9622    2.9618 H   0  0  0  0  0  0  0  0  0  0  0  0
    9.4514    3.5553    2.2268 H   0  0  0  0  0  0  0  0  0  0  0  0
    9.3691    2.4432   -0.0054 H   0  0  0  0  0  0  0  0  0  0  0  0
   11.1084    2.4159   -1.4929 H   0  0  0  0  0  0  0  0  0  0  0  0
   13.8966   -2.5487   -3.0107 H   0  0  0  0  0  0  0  0  0  0  0  0
   14.9818   -3.2956   -5.1134 H   0  0  0  0  0  0  0  0  0  0  0  0
   14.5119   -2.0565   -7.2334 H   0  0  0  0  0  0  0  0  0  0  0  0
   12.9476   -0.1122   -7.1448 H   0  0  0  0  0  0  0  0  0  0  0  0
   11.4776   -1.4597    0.2822 H   0  0  0  0  0  0  0  0  0  0  0  0
    7.5016    4.7163    2.1126 H   0  0  0  0  0  0  0  0  0  0  0  0
    5.0542    4.8633    1.9698 H   0  0  0  0  0  0  0  0  0  0  0  0
    3.6991    2.8724    1.7196 H   0  0  0  0  0  0  0  0  0  0  0  0
  1  2  1  0  0  0  0
  1 31  1  0  0  0  0
  1 32  1  0  0  0  0
  1 33  1  0  0  0  0
  2  3  1  0  0  0  0
  3  4  2  0  0  0  0
  3  5  1  0  0  0  0
  5  6  2  0  0  0  0
  5 30  1  0  0  0  0
  6  7  1  0  0  0  0
  6 34  1  0  0  0  0
  7  8  2  0  0  0  0
  7 35  1  0  0  0  0
  8  9  1  0  0  0  0
  8 36  1  0  0  0  0
  9 10  2  0  0  0  0
  9 30  1  0  0  0  0
 10 11  1  0  0  0  0
 10 27  1  0  0  0  0
 11 12  1  0  0  0  0
 11 37  1  0  0  0  0
 11 38  1  0  0  0  0
 12 13  1  0  0  0  0
 12 39  1  0  0  0  0
 13 14  2  0  0  0  0
 13 15  1  0  0  0  0
 15 16  2  0  0  0  0
 15 26  1  0  0  0  0
 16 17  1  0  0  0  0
 16 40  1  0  0  0  0
 17 18  2  0  0  0  0
 18 19  1  0  0  0  0
 18 25  1  0  0  0  0
 19 20  2  0  0  0  0
 19 24  1  0  0  0  0
 20 21  1  0  0  0  0
 20 41  1  0  0  0  0
 21 22  2  0  0  0  0
 21 42  1  0  0  0  0
 22 23  1  0  0  0  0
 22 43  1  0  0  0  0
 23 24  2  0  0  0  0
 23 44  1  0  0  0  0
 25 26  2  0  0  0  0
 26 45  1  0  0  0  0
 27 28  2  0  0  0  0
 27 46  1  0  0  0  0
 28 29  1  0  0  0  0
 28 47  1  0  0  0  0
 29 30  2  0  0  0  0
 29 48  1  0  0  0  0
M  END
$$$$
