
 OpenBabel01122422363D

 45 48  0  0  0  0  0  0  0  0999 V2000
    4.5158   -2.3051   -0.3752 N   0  0  0  0  0  0  0  0  0  0  0  0
    4.1404   -0.9955   -0.0406 C   0  0  0  0  0  0  0  0  0  0  0  0
    4.8659    0.0845   -0.5297 C   0  0  0  0  0  0  0  0  0  0  0  0
    4.4219    1.3840   -0.2680 C   0  0  0  0  0  0  0  0  0  0  0  0
    5.2833    2.5170   -0.7068 C   0  0  0  0  0  0  0  0  0  0  0  0
    6.3495    2.2303   -1.2479 O   0  0  0  0  0  0  0  0  0  0  0  0
    4.8286    3.7994   -0.4062 N   0  0  0  0  0  0  0  0  0  0  0  0
    5.5345    4.9923   -0.7035 C   0  0  0  0  0  0  0  0  0  0  0  0
    6.5577    5.0196   -1.6576 C   0  0  0  0  0  0  0  0  0  0  0  0
    7.3648    6.1388   -1.9101 C   0  0  0  0  0  0  0  0  0  0  0  0
    8.4229    6.1084   -2.8766 N   0  0  0  0  0  0  0  0  0  0  0  0
    8.4932    5.1464   -3.8751 C   0  0  0  0  0  0  0  0  0  0  0  0
    7.5936    4.3372   -4.1005 O   0  0  0  0  0  0  0  0  0  0  0  0
    9.6395    5.0600   -4.7529 C   0  0  0  0  0  0  0  0  0  0  0  0
   10.7637    5.7983   -5.1000 C   0  0  0  0  0  0  0  0  0  0  0  0
   11.3652    5.1600   -6.2486 C   0  0  0  0  0  0  0  0  0  0  0  0
   12.4417    5.4456   -7.1201 C   0  0  0  0  0  0  0  0  0  0  0  0
   12.6756    4.6075   -8.2280 C   0  0  0  0  0  0  0  0  0  0  0  0
   11.8809    3.4937   -8.4704 C   0  0  0  0  0  0  0  0  0  0  0  0
   10.8401    3.1628   -7.6030 C   0  0  0  0  0  0  0  0  0  0  0  0
   10.6245    4.0141   -6.5166 C   0  0  0  0  0  0  0  0  0  0  0  0
    9.6834    3.9277   -5.5398 N   0  0  0  0  0  0  0  0  0  0  0  0
    7.1139    7.2846   -1.1573 C   0  0  0  0  0  0  0  0  0  0  0  0
    6.0419    7.3067   -0.2445 C   0  0  0  0  0  0  0  0  0  0  0  0
    5.2431    6.1714   -0.0281 C   0  0  0  0  0  0  0  0  0  0  0  0
    3.2732    1.6801    0.3982 N   0  0  0  0  0  0  0  0  0  0  0  0
    2.5480    0.6044    0.7953 C   0  0  0  0  0  0  0  0  0  0  0  0
    2.9330   -0.7160    0.5967 C   0  0  0  0  0  0  0  0  0  0  0  0
    2.1512   -1.7162    1.0325 F   0  0  0  0  0  0  0  0  0  0  0  0
    5.5141   -2.4371   -0.5158 H   0  0  0  0  0  0  0  0  0  0  0  0
    4.1097   -3.0105    0.2358 H   0  0  0  0  0  0  0  0  0  0  0  0
    5.7772   -0.0770   -1.0994 H   0  0  0  0  0  0  0  0  0  0  0  0
    4.0059    3.8452    0.1873 H   0  0  0  0  0  0  0  0  0  0  0  0
    6.7276    4.1113   -2.2174 H   0  0  0  0  0  0  0  0  0  0  0  0
    9.0936    6.8648   -2.8855 H   0  0  0  0  0  0  0  0  0  0  0  0
   11.0789    6.7400   -4.6721 H   0  0  0  0  0  0  0  0  0  0  0  0
   13.0702    6.3164   -6.9648 H   0  0  0  0  0  0  0  0  0  0  0  0
   13.4853    4.8357   -8.9181 H   0  0  0  0  0  0  0  0  0  0  0  0
   12.0522    2.8687   -9.3454 H   0  0  0  0  0  0  0  0  0  0  0  0
   10.2083    2.2981   -7.7778 H   0  0  0  0  0  0  0  0  0  0  0  0
    8.9830    3.1998   -5.4623 H   0  0  0  0  0  0  0  0  0  0  0  0
    7.7159    8.1776   -1.2847 H   0  0  0  0  0  0  0  0  0  0  0  0
    5.8322    8.2174    0.3133 H   0  0  0  0  0  0  0  0  0  0  0  0
    4.4353    6.2165    0.6973 H   0  0  0  0  0  0  0  0  0  0  0  0
    1.6116    0.8258    1.2994 H   0  0  0  0  0  0  0  0  0  0  0  0
  1  2  1  0  0  0  0
  1 30  1  0  0  0  0
  1 31  1  0  0  0  0
  2  3  2  0  0  0  0
  2 28  1  0  0  0  0
  3  4  1  0  0  0  0
  3 32  1  0  0  0  0
  4  5  1  0  0  0  0
  4 26  2  0  0  0  0
  5  6  2  0  0  0  0
  5  7  1  0  0  0  0
  7  8  1  0  0  0  0
  7 33  1  0  0  0  0
  8  9  2  0  0  0  0
  8 25  1  0  0  0  0
  9 10  1  0  0  0  0
  9 34  1  0  0  0  0
 10 11  1  0  0  0  0
 10 23  2  0  0  0  0
 11 12  1  0  0  0  0
 11 35  1  0  0  0  0
 12 13  2  0  0  0  0
 12 14  1  0  0  0  0
 14 15  2  0  0  0  0
 14 22  1  0  0  0  0
 15 16  1  0  0  0  0
 15 36  1  0  0  0  0
 16 17  2  0  0  0  0
 16 21  1  0  0  0  0
 17 18  1  0  0  0  0
 17 37  1  0  0  0  0
 18 19  2  0  0  0  0
 18 38  1  0  0  0  0
 19 20  1  0  0  0  0
 19 39  1  0  0  0  0
 20 21  2  0  0  0  0
 20 40  1  0  0  0  0
 21 22  1  0  0  0  0
 22 41  1  0  0  0  0
 23 24  1  0  0  0  0
 23 42  1  0  0  0  0
 24 25  2  0  0  0  0
 24 43  1  0  0  0  0
 25 44  1  0  0  0  0
 26 27  1  0  0  0  0
 27 28  2  0  0  0  0
 27 45  1  0  0  0  0
 28 29  1  0  0  0  0
M  END
$$$$
