
 OpenBabel01122422363D

 49 52  0  0  0  0  0  0  0  0999 V2000
    4.6158   -2.0451   -0.8512 C   0  0  0  0  0  0  0  0  0  0  0  0
    4.1687   -0.8044   -1.4069 O   0  0  0  0  0  0  0  0  0  0  0  0
    4.4941    0.2834   -0.6546 C   0  0  0  0  0  0  0  0  0  0  0  0
    5.0457    0.2413    0.4359 O   0  0  0  0  0  0  0  0  0  0  0  0
    4.0363    1.5426   -1.3524 C   0  0  0  0  0  0  0  0  0  0  0  0
    4.9193    2.7636   -1.1260 C   0  0  0  0  0  0  0  0  0  0  0  0
    4.2473    3.8947   -0.5964 C   0  0  0  0  0  0  0  0  0  0  0  0
    4.9216    5.0821   -0.3348 C   0  0  0  0  0  0  0  0  0  0  0  0
    6.2674    5.1646   -0.6214 C   0  0  0  0  0  0  0  0  0  0  0  0
    6.9278    6.3031   -0.3751 F   0  0  0  0  0  0  0  0  0  0  0  0
    6.9531    4.0781   -1.1591 C   0  0  0  0  0  0  0  0  0  0  0  0
    6.3166    2.8400   -1.4151 C   0  0  0  0  0  0  0  0  0  0  0  0
    7.1566    1.7108   -1.9243 C   0  0  0  0  0  0  0  0  0  0  0  0
    8.4971    1.5530   -1.5254 C   0  0  0  0  0  0  0  0  0  0  0  0
    9.2808    0.4767   -1.9637 C   0  0  0  0  0  0  0  0  0  0  0  0
    8.7266   -0.5341   -2.7510 C   0  0  0  0  0  0  0  0  0  0  0  0
    9.5547   -1.6236   -3.0473 N   0  0  0  0  0  0  0  0  0  0  0  0
    9.1651   -2.9214   -3.2418 C   0  0  0  0  0  0  0  0  0  0  0  0
   10.0077   -3.7807   -3.4967 O   0  0  0  0  0  0  0  0  0  0  0  0
    7.7070   -3.2530   -2.9817 C   0  0  0  0  0  0  0  0  0  0  0  0
    6.8555   -2.6632   -4.0033 N   0  0  0  0  0  0  0  0  0  0  0  0
    6.7427   -1.3818   -4.1050 C   0  0  0  0  0  0  0  0  0  0  0  0
    5.8607   -0.8834   -5.2138 C   0  0  0  0  0  0  0  0  0  0  0  0
    4.7540   -1.6507   -5.6022 C   0  0  0  0  0  0  0  0  0  0  0  0
    3.9532   -1.2378   -6.6681 C   0  0  0  0  0  0  0  0  0  0  0  0
    4.2492   -0.0550   -7.3441 C   0  0  0  0  0  0  0  0  0  0  0  0
    5.3421    0.7187   -6.9554 C   0  0  0  0  0  0  0  0  0  0  0  0
    6.1540    0.3017   -5.8997 C   0  0  0  0  0  0  0  0  0  0  0  0
    7.4100   -0.3927   -3.2004 C   0  0  0  0  0  0  0  0  0  0  0  0
    6.6738    0.7486   -2.8183 C   0  0  0  0  0  0  0  0  0  0  0  0
    4.2667   -2.8580   -1.4946 H   0  0  0  0  0  0  0  0  0  0  0  0
    4.2038   -2.1905    0.1509 H   0  0  0  0  0  0  0  0  0  0  0  0
    5.7078   -2.0682   -0.8209 H   0  0  0  0  0  0  0  0  0  0  0  0
    3.0162    1.7268   -0.9954 H   0  0  0  0  0  0  0  0  0  0  0  0
    3.9271    1.3851   -2.4319 H   0  0  0  0  0  0  0  0  0  0  0  0
    3.1869    3.8492   -0.3698 H   0  0  0  0  0  0  0  0  0  0  0  0
    4.4023    5.9371    0.0882 H   0  0  0  0  0  0  0  0  0  0  0  0
    8.0085    4.2272   -1.3701 H   0  0  0  0  0  0  0  0  0  0  0  0
    8.9592    2.2566   -0.8346 H   0  0  0  0  0  0  0  0  0  0  0  0
   10.3108    0.4090   -1.6177 H   0  0  0  0  0  0  0  0  0  0  0  0
   10.5600   -1.5203   -2.9744 H   0  0  0  0  0  0  0  0  0  0  0  0
    7.4284   -2.9473   -1.9681 H   0  0  0  0  0  0  0  0  0  0  0  0
    7.5939   -4.3420   -3.0180 H   0  0  0  0  0  0  0  0  0  0  0  0
    4.5211   -2.5799   -5.0862 H   0  0  0  0  0  0  0  0  0  0  0  0
    3.1090   -1.8477   -6.9800 H   0  0  0  0  0  0  0  0  0  0  0  0
    3.6357    0.2570   -8.1859 H   0  0  0  0  0  0  0  0  0  0  0  0
    5.5748    1.6377   -7.4870 H   0  0  0  0  0  0  0  0  0  0  0  0
    7.0200    0.9029   -5.6376 H   0  0  0  0  0  0  0  0  0  0  0  0
    5.6830    0.8702   -3.2393 H   0  0  0  0  0  0  0  0  0  0  0  0
  1  2  1  0  0  0  0
  1 31  1  0  0  0  0
  1 32  1  0  0  0  0
  1 33  1  0  0  0  0
  2  3  1  0  0  0  0
  3  4  2  0  0  0  0
  3  5  1  0  0  0  0
  5  6  1  0  0  0  0
  5 34  1  0  0  0  0
  5 35  1  0  0  0  0
  6  7  2  0  0  0  0
  6 12  1  0  0  0  0
  7  8  1  0  0  0  0
  7 36  1  0  0  0  0
  8  9  2  0  0  0  0
  8 37  1  0  0  0  0
  9 10  1  0  0  0  0
  9 11  1  0  0  0  0
 11 12  2  0  0  0  0
 11 38  1  0  0  0  0
 12 13  1  0  0  0  0
 13 14  2  0  0  0  0
 13 30  1  0  0  0  0
 14 15  1  0  0  0  0
 14 39  1  0  0  0  0
 15 16  2  0  0  0  0
 15 40  1  0  0  0  0
 16 17  1  0  0  0  0
 16 29  1  0  0  0  0
 17 18  1  0  0  0  0
 17 41  1  0  0  0  0
 18 19  2  0  0  0  0
 18 20  1  0  0  0  0
 20 21  1  0  0  0  0
 20 42  1  0  0  0  0
 20 43  1  0  0  0  0
 21 22  2  0  0  0  0
 22 23  1  0  0  0  0
 22 29  1  0  0  0  0
 23 24  2  0  0  0  0
 23 28  1  0  0  0  0
 24 25  1  0  0  0  0
 24 44  1  0  0  0  0
 25 26  2  0  0  0  0
 25 45  1  0  0  0  0
 26 27  1  0  0  0  0
 26 46  1  0  0  0  0
 27 28  2  0  0  0  0
 27 47  1  0  0  0  0
 28 48  1  0  0  0  0
 29 30  2  0  0  0  0
 30 49  1  0  0  0  0
M  END
$$$$
