
 OpenBabel01122422363D

 43 46  0  0  0  0  0  0  0  0999 V2000
    2.7264   -3.4127   -0.7511 N   0  0  0  0  0  0  0  0  0  0  0  0
    1.9477   -2.5584   -0.6740 C   0  0  0  0  0  0  0  0  0  0  0  0
    0.9740   -1.5055   -0.5783 C   0  0  0  0  0  0  0  0  0  0  0  0
    1.3829   -0.1648   -0.6756 C   0  0  0  0  0  0  0  0  0  0  0  0
    0.4532    0.8839   -0.5849 C   0  0  0  0  0  0  0  0  0  0  0  0
   -0.9045    0.5776   -0.3967 C   0  0  0  0  0  0  0  0  0  0  0  0
   -1.9912    1.4100   -0.2789 N   0  0  0  0  0  0  0  0  0  0  0  0
   -3.0358    0.6142   -0.1274 C   0  0  0  0  0  0  0  0  0  0  0  0
   -4.4692    1.0017    0.0321 C   0  0  0  0  0  0  0  0  0  0  0  0
   -4.5982    2.4380   -0.0197 N   0  0  0  0  0  0  0  0  0  0  0  0
   -5.8347    3.0278    0.0922 C   0  0  0  0  0  0  0  0  0  0  0  0
   -6.8664    2.3875    0.2631 O   0  0  0  0  0  0  0  0  0  0  0  0
   -5.8830    4.5051    0.0210 C   0  0  0  0  0  0  0  0  0  0  0  0
   -4.9600    5.2743   -0.6897 C   0  0  0  0  0  0  0  0  0  0  0  0
   -5.0799    6.6677   -0.6954 C   0  0  0  0  0  0  0  0  0  0  0  0
   -6.1302    7.2400    0.0093 C   0  0  0  0  0  0  0  0  0  0  0  0
   -6.1886    8.6315    0.0655 O   0  0  0  0  0  0  0  0  0  0  0  0
   -6.8250    9.1830    1.1618 C   0  0  0  0  0  0  0  0  0  0  0  0
   -6.6905    8.6557    2.4542 C   0  0  0  0  0  0  0  0  0  0  0  0
   -7.4276    9.1816    3.5106 C   0  0  0  0  0  0  0  0  0  0  0  0
   -8.2438   10.2810    3.2870 C   0  0  0  0  0  0  0  0  0  0  0  0
   -8.9652   10.7789    4.3000 F   0  0  0  0  0  0  0  0  0  0  0  0
   -8.3217   10.8728    2.0293 C   0  0  0  0  0  0  0  0  0  0  0  0
   -7.6077   10.3235    0.9582 C   0  0  0  0  0  0  0  0  0  0  0  0
   -7.0719    6.5099    0.6513 N   0  0  0  0  0  0  0  0  0  0  0  0
   -6.9230    5.1651    0.6582 C   0  0  0  0  0  0  0  0  0  0  0  0
   -2.6457   -0.7054   -0.1288 N   0  0  0  0  0  0  0  0  0  0  0  0
   -1.2845   -0.7562   -0.3034 C   0  0  0  0  0  0  0  0  0  0  0  0
   -0.3818   -1.8241   -0.3869 C   0  0  0  0  0  0  0  0  0  0  0  0
    2.4348    0.0772   -0.8245 H   0  0  0  0  0  0  0  0  0  0  0  0
    0.7697    1.9201   -0.6618 H   0  0  0  0  0  0  0  0  0  0  0  0
   -4.8613    0.6503    0.9923 H   0  0  0  0  0  0  0  0  0  0  0  0
   -5.0773    0.5731   -0.7719 H   0  0  0  0  0  0  0  0  0  0  0  0
   -3.7390    2.9745    0.0238 H   0  0  0  0  0  0  0  0  0  0  0  0
   -4.1575    4.8052   -1.2541 H   0  0  0  0  0  0  0  0  0  0  0  0
   -4.3642    7.2870   -1.2247 H   0  0  0  0  0  0  0  0  0  0  0  0
   -6.0535    7.7944    2.6357 H   0  0  0  0  0  0  0  0  0  0  0  0
   -7.3803    8.7263    4.4931 H   0  0  0  0  0  0  0  0  0  0  0  0
   -8.9520   11.7450    1.8902 H   0  0  0  0  0  0  0  0  0  0  0  0
   -7.6866   10.7705   -0.0284 H   0  0  0  0  0  0  0  0  0  0  0  0
   -7.6783    4.6282    1.2262 H   0  0  0  0  0  0  0  0  0  0  0  0
   -3.2595   -1.5015   -0.0260 H   0  0  0  0  0  0  0  0  0  0  0  0
   -0.7153   -2.8550   -0.3094 H   0  0  0  0  0  0  0  0  0  0  0  0
  1  2  3  0  0  0  0
  2  3  1  0  0  0  0
  3  4  2  0  0  0  0
  3 29  1  0  0  0  0
  4  5  1  0  0  0  0
  4 30  1  0  0  0  0
  5  6  2  0  0  0  0
  5 31  1  0  0  0  0
  6  7  1  0  0  0  0
  6 28  1  0  0  0  0
  7  8  2  0  0  0  0
  8  9  1  0  0  0  0
  8 27  1  0  0  0  0
  9 10  1  0  0  0  0
  9 32  1  0  0  0  0
  9 33  1  0  0  0  0
 10 11  1  0  0  0  0
 10 34  1  0  0  0  0
 11 12  2  0  0  0  0
 11 13  1  0  0  0  0
 13 14  2  0  0  0  0
 13 26  1  0  0  0  0
 14 15  1  0  0  0  0
 14 35  1  0  0  0  0
 15 16  2  0  0  0  0
 15 36  1  0  0  0  0
 16 17  1  0  0  0  0
 16 25  1  0  0  0  0
 17 18  1  0  0  0  0
 18 19  2  0  0  0  0
 18 24  1  0  0  0  0
 19 20  1  0  0  0  0
 19 37  1  0  0  0  0
 20 21  2  0  0  0  0
 20 38  1  0  0  0  0
 21 22  1  0  0  0  0
 21 23  1  0  0  0  0
 23 24  2  0  0  0  0
 23 39  1  0  0  0  0
 24 40  1  0  0  0  0
 25 26  2  0  0  0  0
 26 41  1  0  0  0  0
 27 28  1  0  0  0  0
 27 42  1  0  0  0  0
 28 29  2  0  0  0  0
 29 43  1  0  0  0  0
M  END
$$$$
