
 OpenBabel01122422363D

 44 47  0  0  0  0  0  0  0  0999 V2000
    2.2048    0.0803   -0.0009 C   0  0  0  0  0  0  0  0  0  0  0  0
    0.7555   -0.0008   -0.0077 N   0  0  0  0  0  0  0  0  0  0  0  0
   -0.0020   -1.1654   -0.0612 C   0  0  0  0  0  0  0  0  0  0  0  0
    0.4898   -2.5392   -0.0852 C   0  0  0  0  0  0  0  0  0  0  0  0
    1.5422   -2.8806    0.4439 O   0  0  0  0  0  0  0  0  0  0  0  0
   -0.3382   -3.3792   -0.8132 N   0  0  0  0  0  0  0  0  0  0  0  0
   -0.1679   -4.7557   -1.0635 C   0  0  0  0  0  0  0  0  0  0  0  0
    0.7154   -5.5649   -0.3526 C   0  0  0  0  0  0  0  0  0  0  0  0
    0.8984   -6.9037   -0.7161 C   0  0  0  0  0  0  0  0  0  0  0  0
    0.2079   -7.4523   -1.8067 C   0  0  0  0  0  0  0  0  0  0  0  0
    0.4296   -8.7651   -2.2395 C   0  0  0  0  0  0  0  0  0  0  0  0
   -0.2725   -9.2316   -3.3394 C   0  0  0  0  0  0  0  0  0  0  0  0
   -1.1828   -8.5013   -4.0159 N   0  0  0  0  0  0  0  0  0  0  0  0
   -1.3881   -7.2374   -3.5780 C   0  0  0  0  0  0  0  0  0  0  0  0
   -0.7222   -6.6542   -2.4965 C   0  0  0  0  0  0  0  0  0  0  0  0
   -0.9223   -5.3177   -2.1020 C   0  0  0  0  0  0  0  0  0  0  0  0
   -1.3310   -0.7664   -0.0697 C   0  0  0  0  0  0  0  0  0  0  0  0
   -1.3724    0.6356   -0.0847 C   0  0  0  0  0  0  0  0  0  0  0  0
   -0.0753    1.1183    0.0066 C   0  0  0  0  0  0  0  0  0  0  0  0
    0.3571    2.5136    0.0847 C   0  0  0  0  0  0  0  0  0  0  0  0
    1.4774    2.8949   -0.2497 O   0  0  0  0  0  0  0  0  0  0  0  0
   -0.6200    3.5495    0.5209 C   0  0  0  0  0  0  0  0  0  0  0  0
   -0.6738    4.7772   -0.1532 C   0  0  0  0  0  0  0  0  0  0  0  0
   -1.6626    5.7122    0.1742 C   0  0  0  0  0  0  0  0  0  0  0  0
   -2.5966    5.4281    1.1725 C   0  0  0  0  0  0  0  0  0  0  0  0
   -2.5116    4.2316    1.8805 C   0  0  0  0  0  0  0  0  0  0  0  0
   -1.5103    3.3152    1.5711 C   0  0  0  0  0  0  0  0  0  0  0  0
   -1.4360    2.1978    2.3085 F   0  0  0  0  0  0  0  0  0  0  0  0
    2.6561   -0.8818    0.2278 H   0  0  0  0  0  0  0  0  0  0  0  0
    2.5173    0.7937    0.7673 H   0  0  0  0  0  0  0  0  0  0  0  0
    2.5280    0.4083   -0.9929 H   0  0  0  0  0  0  0  0  0  0  0  0
   -1.0652   -2.9215   -1.3474 H   0  0  0  0  0  0  0  0  0  0  0  0
    1.2798   -5.1822    0.4931 H   0  0  0  0  0  0  0  0  0  0  0  0
    1.6054   -7.5056   -0.1491 H   0  0  0  0  0  0  0  0  0  0  0  0
    1.1487   -9.4096   -1.7455 H   0  0  0  0  0  0  0  0  0  0  0  0
   -0.1099  -10.2364   -3.7192 H   0  0  0  0  0  0  0  0  0  0  0  0
   -2.1207   -6.6795   -4.1561 H   0  0  0  0  0  0  0  0  0  0  0  0
   -1.6356   -4.7069   -2.6507 H   0  0  0  0  0  0  0  0  0  0  0  0
   -2.1912   -1.4235   -0.0578 H   0  0  0  0  0  0  0  0  0  0  0  0
   -2.2739    1.2339   -0.1089 H   0  0  0  0  0  0  0  0  0  0  0  0
    0.0393    5.0021   -0.9442 H   0  0  0  0  0  0  0  0  0  0  0  0
   -1.7132    6.6600   -0.3583 H   0  0  0  0  0  0  0  0  0  0  0  0
   -3.3831    6.1423    1.4066 H   0  0  0  0  0  0  0  0  0  0  0  0
   -3.2206    4.0004    2.6702 H   0  0  0  0  0  0  0  0  0  0  0  0
  1  2  1  0  0  0  0
  1 29  1  0  0  0  0
  1 30  1  0  0  0  0
  1 31  1  0  0  0  0
  2  3  1  0  0  0  0
  2 19  1  0  0  0  0
  3  4  1  0  0  0  0
  3 17  2  0  0  0  0
  4  5  2  0  0  0  0
  4  6  1  0  0  0  0
  6  7  1  0  0  0  0
  6 32  1  0  0  0  0
  7  8  2  0  0  0  0
  7 16  1  0  0  0  0
  8  9  1  0  0  0  0
  8 33  1  0  0  0  0
  9 10  2  0  0  0  0
  9 34  1  0  0  0  0
 10 11  1  0  0  0  0
 10 15  1  0  0  0  0
 11 12  2  0  0  0  0
 11 35  1  0  0  0  0
 12 13  1  0  0  0  0
 12 36  1  0  0  0  0
 13 14  2  0  0  0  0
 14 15  1  0  0  0  0
 14 37  1  0  0  0  0
 15 16  2  0  0  0  0
 16 38  1  0  0  0  0
 17 18  1  0  0  0  0
 17 39  1  0  0  0  0
 18 19  2  0  0  0  0
 18 40  1  0  0  0  0
 19 20  1  0  0  0  0
 20 21  2  0  0  0  0
 20 22  1  0  0  0  0
 22 23  2  0  0  0  0
 22 27  1  0  0  0  0
 23 24  1  0  0  0  0
 23 41  1  0  0  0  0
 24 25  2  0  0  0  0
 24 42  1  0  0  0  0
 25 26  1  0  0  0  0
 25 43  1  0  0  0  0
 26 27  2  0  0  0  0
 26 44  1  0  0  0  0
 27 28  1  0  0  0  0
M  END
$$$$
