
 OpenBabel01122422363D

 44 47  0  0  0  0  0  0  0  0999 V2000
    2.4973   -1.2387   -0.5215 O   0  0  0  0  0  0  0  0  0  0  0  0
    2.1771   -0.0919   -0.2559 C   0  0  0  0  0  0  0  0  0  0  0  0
    0.8603    0.2965   -0.1858 N   0  0  0  0  0  0  0  0  0  0  0  0
   -0.1661   -0.6730   -0.4988 C   0  0  0  0  0  0  0  0  0  0  0  0
   -1.4339   -0.3314    0.2176 C   0  0  0  0  0  0  0  0  0  0  0  0
   -1.7095   -0.8728    1.4822 C   0  0  0  0  0  0  0  0  0  0  0  0
   -2.8748   -0.5165    2.1657 C   0  0  0  0  0  0  0  0  0  0  0  0
   -3.7584    0.3940    1.5898 C   0  0  0  0  0  0  0  0  0  0  0  0
   -4.8991    0.7636    2.2426 O   0  0  0  0  0  0  0  0  0  0  0  0
   -3.4862    0.9448    0.3393 C   0  0  0  0  0  0  0  0  0  0  0  0
   -4.3276    1.8332   -0.2100 F   0  0  0  0  0  0  0  0  0  0  0  0
   -2.3304    0.5839   -0.3389 C   0  0  0  0  0  0  0  0  0  0  0  0
   -2.0545    1.1400   -1.5285 F   0  0  0  0  0  0  0  0  0  0  0  0
    3.0237    0.9476    0.0465 N   0  0  0  0  0  0  0  0  0  0  0  0
    4.4276    0.9167   -0.0295 C   0  0  0  0  0  0  0  0  0  0  0  0
    5.1224   -0.0767   -0.7191 C   0  0  0  0  0  0  0  0  0  0  0  0
    6.5050   -0.0012   -0.8797 C   0  0  0  0  0  0  0  0  0  0  0  0
    7.2060    1.0945   -0.3714 C   0  0  0  0  0  0  0  0  0  0  0  0
    8.4972    1.4227   -0.8804 N   0  0  0  0  0  0  0  0  0  0  0  0
    8.9653    2.6939   -0.7395 N   0  0  0  0  0  0  0  0  0  0  0  0
    9.3944    3.0735   -1.9359 N   0  0  0  0  0  0  0  0  0  0  0  0
    9.4797    1.9530   -2.7137 C   0  0  0  0  0  0  0  0  0  0  0  0
    9.8146    1.7984   -4.0633 C   0  0  0  0  0  0  0  0  0  0  0  0
    9.9271    0.5009   -4.5770 C   0  0  0  0  0  0  0  0  0  0  0  0
    9.7403   -0.6153   -3.7569 C   0  0  0  0  0  0  0  0  0  0  0  0
    9.3360   -0.4779   -2.4238 C   0  0  0  0  0  0  0  0  0  0  0  0
    9.1527    0.8312   -1.9565 C   0  0  0  0  0  0  0  0  0  0  0  0
    6.5296    2.0393    0.4157 C   0  0  0  0  0  0  0  0  0  0  0  0
    5.1421    1.9604    0.5636 C   0  0  0  0  0  0  0  0  0  0  0  0
    0.6706    1.2471   -0.4703 H   0  0  0  0  0  0  0  0  0  0  0  0
    0.1618   -1.6801   -0.2155 H   0  0  0  0  0  0  0  0  0  0  0  0
   -0.3088   -0.6821   -1.5855 H   0  0  0  0  0  0  0  0  0  0  0  0
   -1.0110   -1.5715    1.9412 H   0  0  0  0  0  0  0  0  0  0  0  0
   -3.0682   -0.9490    3.1443 H   0  0  0  0  0  0  0  0  0  0  0  0
   -4.9509    0.3003    3.0939 H   0  0  0  0  0  0  0  0  0  0  0  0
    2.6018    1.7489    0.4914 H   0  0  0  0  0  0  0  0  0  0  0  0
    4.6072   -0.8908   -1.2203 H   0  0  0  0  0  0  0  0  0  0  0  0
    6.9643   -0.7664   -1.4936 H   0  0  0  0  0  0  0  0  0  0  0  0
    9.9677    2.6696   -4.6898 H   0  0  0  0  0  0  0  0  0  0  0  0
   10.1757    0.3637   -5.6269 H   0  0  0  0  0  0  0  0  0  0  0  0
    9.8745   -1.6119   -4.1746 H   0  0  0  0  0  0  0  0  0  0  0  0
    9.1407   -1.3485   -1.8054 H   0  0  0  0  0  0  0  0  0  0  0  0
    7.0490    2.8997    0.8354 H   0  0  0  0  0  0  0  0  0  0  0  0
    4.6316    2.7512    1.1070 H   0  0  0  0  0  0  0  0  0  0  0  0
  1  2  2  0  0  0  0
  2  3  1  0  0  0  0
  2 14  1  0  0  0  0
  3  4  1  0  0  0  0
  3 30  1  0  0  0  0
  4  5  1  0  0  0  0
  4 31  1  0  0  0  0
  4 32  1  0  0  0  0
  5  6  2  0  0  0  0
  5 12  1  0  0  0  0
  6  7  1  0  0  0  0
  6 33  1  0  0  0  0
  7  8  2  0  0  0  0
  7 34  1  0  0  0  0
  8  9  1  0  0  0  0
  8 10  1  0  0  0  0
  9 35  1  0  0  0  0
 10 11  1  0  0  0  0
 10 12  2  0  0  0  0
 12 13  1  0  0  0  0
 14 15  1  0  0  0  0
 14 36  1  0  0  0  0
 15 16  2  0  0  0  0
 15 29  1  0  0  0  0
 16 17  1  0  0  0  0
 16 37  1  0  0  0  0
 17 18  2  0  0  0  0
 17 38  1  0  0  0  0
 18 19  1  0  0  0  0
 18 28  1  0  0  0  0
 19 20  1  0  0  0  0
 19 27  1  0  0  0  0
 20 21  2  0  0  0  0
 21 22  1  0  0  0  0
 22 23  2  0  0  0  0
 22 27  1  0  0  0  0
 23 24  1  0  0  0  0
 23 39  1  0  0  0  0
 24 25  2  0  0  0  0
 24 40  1  0  0  0  0
 25 26  1  0  0  0  0
 25 41  1  0  0  0  0
 26 27  2  0  0  0  0
 26 42  1  0  0  0  0
 28 29  2  0  0  0  0
 28 43  1  0  0  0  0
 29 44  1  0  0  0  0
M  END
$$$$
