
 OpenBabel01122422363D

 44 47  0  0  0  0  0  0  0  0999 V2000
    1.4803   -0.1839    2.2054 O   0  0  0  0  0  0  0  0  0  0  0  0
    2.4060   -0.4194    1.4243 C   0  0  0  0  0  0  0  0  0  0  0  0
    2.5890   -1.6461    0.8604 O   0  0  0  0  0  0  0  0  0  0  0  0
    1.5138   -2.5731    1.0991 C   0  0  0  0  0  0  0  0  0  0  0  0
    1.6802   -3.4162    2.3412 C   0  0  0  0  0  0  0  0  0  0  0  0
    0.5677   -3.7493    3.1309 C   0  0  0  0  0  0  0  0  0  0  0  0
    0.6933   -4.6645    4.1747 C   0  0  0  0  0  0  0  0  0  0  0  0
    1.9208   -5.2459    4.4558 C   0  0  0  0  0  0  0  0  0  0  0  0
    3.0382   -4.8987    3.7099 C   0  0  0  0  0  0  0  0  0  0  0  0
    2.9204   -3.9846    2.6531 C   0  0  0  0  0  0  0  0  0  0  0  0
    3.2739    0.6975    0.8293 C   0  0  0  0  0  0  0  0  0  0  0  0
    2.7381    1.0676   -0.3890 F   0  0  0  0  0  0  0  0  0  0  0  0
    3.0755    1.8317    1.6022 F   0  0  0  0  0  0  0  0  0  0  0  0
    4.7941    0.4904    0.6612 C   0  0  0  0  0  0  0  0  0  0  0  0
    5.5076    1.6872    0.4522 C   0  0  0  0  0  0  0  0  0  0  0  0
    6.8785    1.6663    0.2797 C   0  0  0  0  0  0  0  0  0  0  0  0
    7.5252    0.4463    0.3104 C   0  0  0  0  0  0  0  0  0  0  0  0
    6.7855   -0.7308    0.4939 C   0  0  0  0  0  0  0  0  0  0  0  0
    7.5415   -1.9724    0.7795 C   0  0  0  0  0  0  0  0  0  0  0  0
    8.7109   -2.3207    0.0525 C   0  0  0  0  0  0  0  0  0  0  0  0
    9.7231   -3.1426    0.6052 C   0  0  0  0  0  0  0  0  0  0  0  0
    9.6350   -3.5753    1.9256 C   0  0  0  0  0  0  0  0  0  0  0  0
    8.4910   -3.2314    2.6044 C   0  0  0  0  0  0  0  0  0  0  0  0
    7.4112   -2.5827    2.0153 C   0  0  0  0  0  0  0  0  0  0  0  0
    6.4882   -2.2473    3.0160 N   0  0  0  0  0  0  0  0  0  0  0  0
    7.1765   -2.3865    4.2401 C   0  0  0  0  0  0  0  0  0  0  0  0
    6.8526   -1.9059    5.3120 O   0  0  0  0  0  0  0  0  0  0  0  0
    8.3113   -3.1517    3.9796 N   0  0  0  0  0  0  0  0  0  0  0  0
    5.4243   -0.7238    0.6577 N   0  0  0  0  0  0  0  0  0  0  0  0
    1.4961   -3.2561    0.2424 H   0  0  0  0  0  0  0  0  0  0  0  0
    0.5429   -2.0600    1.0884 H   0  0  0  0  0  0  0  0  0  0  0  0
   -0.4077   -3.3131    2.9253 H   0  0  0  0  0  0  0  0  0  0  0  0
   -0.1826   -4.9309    4.7762 H   0  0  0  0  0  0  0  0  0  0  0  0
    2.0099   -5.9817    5.2567 H   0  0  0  0  0  0  0  0  0  0  0  0
    4.0015   -5.3453    3.9282 H   0  0  0  0  0  0  0  0  0  0  0  0
    3.7906   -3.7376    2.0520 H   0  0  0  0  0  0  0  0  0  0  0  0
    4.9861    2.6423    0.4437 H   0  0  0  0  0  0  0  0  0  0  0  0
    7.4383    2.5898    0.1649 H   0  0  0  0  0  0  0  0  0  0  0  0
    8.6111    0.4268    0.2719 H   0  0  0  0  0  0  0  0  0  0  0  0
    8.9150   -1.8443   -0.9073 H   0  0  0  0  0  0  0  0  0  0  0  0
   10.6353   -3.3300    0.0394 H   0  0  0  0  0  0  0  0  0  0  0  0
   10.4607   -4.0798    2.4116 H   0  0  0  0  0  0  0  0  0  0  0  0
    5.6904   -2.8823    3.0201 H   0  0  0  0  0  0  0  0  0  0  0  0
    9.0533   -3.2115    4.6607 H   0  0  0  0  0  0  0  0  0  0  0  0
  1  2  2  0  0  0  0
  2  3  1  0  0  0  0
  2 11  1  0  0  0  0
  3  4  1  0  0  0  0
  4  5  1  0  0  0  0
  4 30  1  0  0  0  0
  4 31  1  0  0  0  0
  5  6  2  0  0  0  0
  5 10  1  0  0  0  0
  6  7  1  0  0  0  0
  6 32  1  0  0  0  0
  7  8  2  0  0  0  0
  7 33  1  0  0  0  0
  8  9  1  0  0  0  0
  8 34  1  0  0  0  0
  9 10  2  0  0  0  0
  9 35  1  0  0  0  0
 10 36  1  0  0  0  0
 11 12  1  0  0  0  0
 11 13  1  0  0  0  0
 11 14  1  0  0  0  0
 14 15  2  0  0  0  0
 14 29  1  0  0  0  0
 15 16  1  0  0  0  0
 15 37  1  0  0  0  0
 16 17  2  0  0  0  0
 16 38  1  0  0  0  0
 17 18  1  0  0  0  0
 17 39  1  0  0  0  0
 18 19  1  0  0  0  0
 18 29  2  0  0  0  0
 19 20  2  0  0  0  0
 19 24  1  0  0  0  0
 20 21  1  0  0  0  0
 20 40  1  0  0  0  0
 21 22  2  0  0  0  0
 21 41  1  0  0  0  0
 22 23  1  0  0  0  0
 22 42  1  0  0  0  0
 23 24  2  0  0  0  0
 23 28  1  0  0  0  0
 24 25  1  0  0  0  0
 25 26  1  0  0  0  0
 25 43  1  0  0  0  0
 26 27  2  0  0  0  0
 26 28  1  0  0  0  0
 28 44  1  0  0  0  0
M  END
$$$$
