
 OpenBabel01122422363D

 43 46  0  0  0  0  0  0  0  0999 V2000
   -0.6539   10.1766    4.9303 N   0  0  0  0  0  0  0  0  0  0  0  0
   -0.5135    9.0335    4.7967 C   0  0  0  0  0  0  0  0  0  0  0  0
   -0.3539    7.6121    4.6649 C   0  0  0  0  0  0  0  0  0  0  0  0
    0.0024    7.0466    3.4295 C   0  0  0  0  0  0  0  0  0  0  0  0
    0.1879    5.6552    3.2797 C   0  0  0  0  0  0  0  0  0  0  0  0
    0.6556    5.0836    2.0001 C   0  0  0  0  0  0  0  0  0  0  0  0
    0.3088    3.8174    1.5463 C   0  0  0  0  0  0  0  0  0  0  0  0
    0.8829    3.3476    0.3672 C   0  0  0  0  0  0  0  0  0  0  0  0
    1.7853    4.1524   -0.3289 C   0  0  0  0  0  0  0  0  0  0  0  0
    2.0745    5.4139    0.1678 C   0  0  0  0  0  0  0  0  0  0  0  0
    2.9858    6.2291   -0.5394 N   0  0  0  0  0  0  0  0  0  0  0  0
    3.3104    7.5121   -0.1412 C   0  0  0  0  0  0  0  0  0  0  0  0
    2.8652    8.0852    0.8447 O   0  0  0  0  0  0  0  0  0  0  0  0
    4.2464    8.2472   -0.9943 C   0  0  0  0  0  0  0  0  0  0  0  0
    4.9720    7.8600   -2.1034 C   0  0  0  0  0  0  0  0  0  0  0  0
    5.7123    8.8998   -2.5913 O   0  0  0  0  0  0  0  0  0  0  0  0
    5.4833    9.9744   -1.7802 C   0  0  0  0  0  0  0  0  0  0  0  0
    6.1744   11.2522   -2.0910 C   0  0  0  0  0  0  0  0  0  0  0  0
    7.4183   11.3652   -1.3404 N   0  0  0  0  0  0  0  0  0  0  0  0
    8.5414   10.5978   -1.4942 C   0  0  0  0  0  0  0  0  0  0  0  0
    9.4414   11.0435   -0.5564 C   0  0  0  0  0  0  0  0  0  0  0  0
    8.7891   12.1122    0.0843 C   0  0  0  0  0  0  0  0  0  0  0  0
    7.5644   12.3280   -0.4028 N   0  0  0  0  0  0  0  0  0  0  0  0
    4.5993    9.6184   -0.7902 C   0  0  0  0  0  0  0  0  0  0  0  0
    1.5122    5.8657    1.3028 N   0  0  0  0  0  0  0  0  0  0  0  0
   -0.0175    4.8514    4.4130 C   0  0  0  0  0  0  0  0  0  0  0  0
   -0.3719    5.4181    5.6349 C   0  0  0  0  0  0  0  0  0  0  0  0
   -0.5332    4.6239    6.7012 F   0  0  0  0  0  0  0  0  0  0  0  0
   -0.5387    6.7879    5.7747 C   0  0  0  0  0  0  0  0  0  0  0  0
    0.1654    7.7006    2.5695 H   0  0  0  0  0  0  0  0  0  0  0  0
   -0.3923    3.1956    2.0930 H   0  0  0  0  0  0  0  0  0  0  0  0
    0.6325    2.3552    0.0025 H   0  0  0  0  0  0  0  0  0  0  0  0
    2.2382    3.7786   -1.2400 H   0  0  0  0  0  0  0  0  0  0  0  0
    3.3933    5.8500   -1.3789 H   0  0  0  0  0  0  0  0  0  0  0  0
    5.0836    6.9382   -2.6581 H   0  0  0  0  0  0  0  0  0  0  0  0
    5.5397   12.1030   -1.8148 H   0  0  0  0  0  0  0  0  0  0  0  0
    6.4216   11.3421   -3.1531 H   0  0  0  0  0  0  0  0  0  0  0  0
    8.5856    9.8011   -2.2234 H   0  0  0  0  0  0  0  0  0  0  0  0
   10.4296   10.6527   -0.3625 H   0  0  0  0  0  0  0  0  0  0  0  0
    9.1561   12.7425    0.8845 H   0  0  0  0  0  0  0  0  0  0  0  0
    4.2338   10.2602    0.0020 H   0  0  0  0  0  0  0  0  0  0  0  0
    0.1364    3.7767    4.3781 H   0  0  0  0  0  0  0  0  0  0  0  0
   -0.7962    7.1964    6.7479 H   0  0  0  0  0  0  0  0  0  0  0  0
  1  2  3  0  0  0  0
  2  3  1  0  0  0  0
  3  4  2  0  0  0  0
  3 29  1  0  0  0  0
  4  5  1  0  0  0  0
  4 30  1  0  0  0  0
  5  6  1  0  0  0  0
  5 26  2  0  0  0  0
  6  7  2  0  0  0  0
  6 25  1  0  0  0  0
  7  8  1  0  0  0  0
  7 31  1  0  0  0  0
  8  9  2  0  0  0  0
  8 32  1  0  0  0  0
  9 10  1  0  0  0  0
  9 33  1  0  0  0  0
 10 11  1  0  0  0  0
 10 25  2  0  0  0  0
 11 12  1  0  0  0  0
 11 34  1  0  0  0  0
 12 13  2  0  0  0  0
 12 14  1  0  0  0  0
 14 15  2  0  0  0  0
 14 24  1  0  0  0  0
 15 16  1  0  0  0  0
 15 35  1  0  0  0  0
 16 17  1  0  0  0  0
 17 18  1  0  0  0  0
 17 24  2  0  0  0  0
 18 19  1  0  0  0  0
 18 36  1  0  0  0  0
 18 37  1  0  0  0  0
 19 20  1  0  0  0  0
 19 23  1  0  0  0  0
 20 21  2  0  0  0  0
 20 38  1  0  0  0  0
 21 22  1  0  0  0  0
 21 39  1  0  0  0  0
 22 23  2  0  0  0  0
 22 40  1  0  0  0  0
 24 41  1  0  0  0  0
 26 27  1  0  0  0  0
 26 42  1  0  0  0  0
 27 28  1  0  0  0  0
 27 29  2  0  0  0  0
 29 43  1  0  0  0  0
M  END
$$$$
