
 OpenBabel01122422363D

 42 45  0  0  0  0  0  0  0  0999 V2000
    1.8169    0.4309   -2.0469 C   0  0  0  0  0  0  0  0  0  0  0  0
    2.8985    0.2741   -1.0040 C   0  0  0  0  0  0  0  0  0  0  0  0
    3.2661    1.3374   -0.1575 C   0  0  0  0  0  0  0  0  0  0  0  0
    2.5800    2.5650   -0.2014 N   0  0  0  0  0  0  0  0  0  0  0  0
    3.2071    3.7997   -0.2811 C   0  0  0  0  0  0  0  0  0  0  0  0
    4.4214    3.9767   -0.2852 O   0  0  0  0  0  0  0  0  0  0  0  0
    2.2687    4.9171   -0.4431 C   0  0  0  0  0  0  0  0  0  0  0  0
    0.9387    4.7504   -0.3370 N   0  0  0  0  0  0  0  0  0  0  0  0
    0.3868    6.0088   -0.4917 O   0  0  0  0  0  0  0  0  0  0  0  0
    1.3692    6.9302   -0.7172 C   0  0  0  0  0  0  0  0  0  0  0  0
    0.9402    8.3199   -0.8581 C   0  0  0  0  0  0  0  0  0  0  0  0
   -0.4168    8.6785   -0.7724 C   0  0  0  0  0  0  0  0  0  0  0  0
   -0.8155   10.0196   -0.8365 C   0  0  0  0  0  0  0  0  0  0  0  0
    0.1359   11.0340   -0.9972 C   0  0  0  0  0  0  0  0  0  0  0  0
   -0.2620   12.4123   -1.0242 C   0  0  0  0  0  0  0  0  0  0  0  0
   -0.5829   13.5255   -1.0369 N   0  0  0  0  0  0  0  0  0  0  0  0
    1.4858   10.6922   -1.1135 C   0  0  0  0  0  0  0  0  0  0  0  0
    1.8709    9.3518   -1.0448 C   0  0  0  0  0  0  0  0  0  0  0  0
    3.1799    9.0787   -1.1511 F   0  0  0  0  0  0  0  0  0  0  0  0
    2.5782    6.2732   -0.7214 C   0  0  0  0  0  0  0  0  0  0  0  0
    4.2965    1.1614    0.7666 C   0  0  0  0  0  0  0  0  0  0  0  0
    4.9548   -0.0664    0.8670 C   0  0  0  0  0  0  0  0  0  0  0  0
    4.6562   -1.1242    0.0268 C   0  0  0  0  0  0  0  0  0  0  0  0
    5.3717   -2.2564    0.1570 N   0  0  0  0  0  0  0  0  0  0  0  0
    5.1117   -3.2456   -0.7079 C   0  0  0  0  0  0  0  0  0  0  0  0
    5.8739   -4.3526   -0.5298 O   0  0  0  0  0  0  0  0  0  0  0  0
    4.1741   -3.2032   -1.7070 C   0  0  0  0  0  0  0  0  0  0  0  0
    3.4163   -2.0438   -1.8116 C   0  0  0  0  0  0  0  0  0  0  0  0
    3.6310   -0.9550   -0.9372 C   0  0  0  0  0  0  0  0  0  0  0  0
    1.3408    1.4135   -2.0461 H   0  0  0  0  0  0  0  0  0  0  0  0
    1.0259   -0.3070   -1.8801 H   0  0  0  0  0  0  0  0  0  0  0  0
    2.2411    0.2984   -3.0478 H   0  0  0  0  0  0  0  0  0  0  0  0
    1.6036    2.5748   -0.4733 H   0  0  0  0  0  0  0  0  0  0  0  0
   -1.1855    7.9206   -0.6388 H   0  0  0  0  0  0  0  0  0  0  0  0
   -1.8716   10.2696   -0.7530 H   0  0  0  0  0  0  0  0  0  0  0  0
    2.2503   11.4537   -1.2439 H   0  0  0  0  0  0  0  0  0  0  0  0
    3.5607    6.6971   -0.8735 H   0  0  0  0  0  0  0  0  0  0  0  0
    4.5768    1.9606    1.4490 H   0  0  0  0  0  0  0  0  0  0  0  0
    5.7340   -0.1912    1.6156 H   0  0  0  0  0  0  0  0  0  0  0  0
    6.4028   -4.0689    0.2374 H   0  0  0  0  0  0  0  0  0  0  0  0
    4.0358   -4.0392   -2.3812 H   0  0  0  0  0  0  0  0  0  0  0  0
    2.6689   -1.9954   -2.5983 H   0  0  0  0  0  0  0  0  0  0  0  0
  1  2  1  0  0  0  0
  1 30  1  0  0  0  0
  1 31  1  0  0  0  0
  1 32  1  0  0  0  0
  2  3  2  0  0  0  0
  2 29  1  0  0  0  0
  3  4  1  0  0  0  0
  3 21  1  0  0  0  0
  4  5  1  0  0  0  0
  4 33  1  0  0  0  0
  5  6  2  0  0  0  0
  5  7  1  0  0  0  0
  7  8  2  0  0  0  0
  7 20  1  0  0  0  0
  8  9  1  0  0  0  0
  9 10  1  0  0  0  0
 10 11  1  0  0  0  0
 10 20  2  0  0  0  0
 11 12  2  0  0  0  0
 11 18  1  0  0  0  0
 12 13  1  0  0  0  0
 12 34  1  0  0  0  0
 13 14  2  0  0  0  0
 13 35  1  0  0  0  0
 14 15  1  0  0  0  0
 14 17  1  0  0  0  0
 15 16  3  0  0  0  0
 17 18  2  0  0  0  0
 17 36  1  0  0  0  0
 18 19  1  0  0  0  0
 20 37  1  0  0  0  0
 21 22  2  0  0  0  0
 21 38  1  0  0  0  0
 22 23  1  0  0  0  0
 22 39  1  0  0  0  0
 23 24  2  0  0  0  0
 23 29  1  0  0  0  0
 24 25  1  0  0  0  0
 25 26  1  0  0  0  0
 25 27  2  0  0  0  0
 26 40  1  0  0  0  0
 27 28  1  0  0  0  0
 27 41  1  0  0  0  0
 28 29  2  0  0  0  0
 28 42  1  0  0  0  0
M  END
$$$$
