
 OpenBabel01122422363D

 45 48  0  0  0  0  0  0  0  0999 V2000
    0.8615    0.2965   -0.9803 C   0  0  0  0  0  0  0  0  0  0  0  0
    2.3030    0.2154   -1.1118 N   0  0  0  0  0  0  0  0  0  0  0  0
    3.0059    1.3738   -1.3999 C   0  0  0  0  0  0  0  0  0  0  0  0
    2.4926    2.4799   -1.5542 O   0  0  0  0  0  0  0  0  0  0  0  0
    4.3638    1.2548   -1.5029 N   0  0  0  0  0  0  0  0  0  0  0  0
    5.0550    0.0611   -1.3096 C   0  0  0  0  0  0  0  0  0  0  0  0
    6.4449    0.0465   -1.3853 C   0  0  0  0  0  0  0  0  0  0  0  0
    7.1587   -1.1342   -1.1249 C   0  0  0  0  0  0  0  0  0  0  0  0
    8.6383   -1.0136   -0.9951 C   0  0  0  0  0  0  0  0  0  0  0  0
    9.1057    0.1158   -0.8677 O   0  0  0  0  0  0  0  0  0  0  0  0
    9.3949   -2.1750   -1.0063 N   0  0  0  0  0  0  0  0  0  0  0  0
   10.7713   -2.1612   -0.6499 C   0  0  0  0  0  0  0  0  0  0  0  0
   11.1792   -1.3786    0.4465 C   0  0  0  0  0  0  0  0  0  0  0  0
   12.5086   -1.3470    0.8541 C   0  0  0  0  0  0  0  0  0  0  0  0
   13.4528   -2.0913    0.1583 C   0  0  0  0  0  0  0  0  0  0  0  0
   13.0647   -2.8810   -0.9340 C   0  0  0  0  0  0  0  0  0  0  0  0
   14.3282   -3.7580   -1.7350 Cl  0  0  0  0  0  0  0  0  0  0  0  0
   11.7161   -2.9461   -1.3457 C   0  0  0  0  0  0  0  0  0  0  0  0
   11.1946   -4.0191   -2.6954 S   0  0  0  0  0  0  0  0  0  0  0  0
   11.3631   -2.9326   -4.1004 C   0  0  0  0  0  0  0  0  0  0  0  0
   12.3182   -3.1919   -5.0803 C   0  0  0  0  0  0  0  0  0  0  0  0
   12.3594   -2.3794   -6.2126 C   0  0  0  0  0  0  0  0  0  0  0  0
   11.4500   -1.3348   -6.3309 C   0  0  0  0  0  0  0  0  0  0  0  0
   10.5347   -1.1481   -5.3078 C   0  0  0  0  0  0  0  0  0  0  0  0
   10.4625   -1.9280   -4.2049 N   0  0  0  0  0  0  0  0  0  0  0  0
    6.4627   -2.3162   -0.8424 C   0  0  0  0  0  0  0  0  0  0  0  0
    5.0584   -2.2970   -0.7854 C   0  0  0  0  0  0  0  0  0  0  0  0
    4.3633   -1.1020   -0.9988 C   0  0  0  0  0  0  0  0  0  0  0  0
    2.8944   -1.0214   -0.8553 C   0  0  0  0  0  0  0  0  0  0  0  0
    2.2716   -2.0215   -0.5059 O   0  0  0  0  0  0  0  0  0  0  0  0
    0.4648    1.2512   -1.3357 H   0  0  0  0  0  0  0  0  0  0  0  0
    0.5990    0.1707    0.0750 H   0  0  0  0  0  0  0  0  0  0  0  0
    0.3990   -0.5145   -1.5517 H   0  0  0  0  0  0  0  0  0  0  0  0
    4.8600    2.1131   -1.7013 H   0  0  0  0  0  0  0  0  0  0  0  0
    6.9884    0.9667   -1.5958 H   0  0  0  0  0  0  0  0  0  0  0  0
    9.1016   -2.9110   -1.6402 H   0  0  0  0  0  0  0  0  0  0  0  0
   10.4526   -0.7957    1.0104 H   0  0  0  0  0  0  0  0  0  0  0  0
   12.8000   -0.7425    1.7102 H   0  0  0  0  0  0  0  0  0  0  0  0
   14.4925   -2.0558    0.4750 H   0  0  0  0  0  0  0  0  0  0  0  0
   13.0145   -4.0189   -4.9808 H   0  0  0  0  0  0  0  0  0  0  0  0
   13.0883   -2.5620   -6.9981 H   0  0  0  0  0  0  0  0  0  0  0  0
   11.4498   -0.6856   -7.1999 H   0  0  0  0  0  0  0  0  0  0  0  0
    9.8036   -0.3451   -5.3541 H   0  0  0  0  0  0  0  0  0  0  0  0
    6.9823   -3.2407   -0.6076 H   0  0  0  0  0  0  0  0  0  0  0  0
    4.5145   -3.2048   -0.5248 H   0  0  0  0  0  0  0  0  0  0  0  0
  1  2  1  0  0  0  0
  1 31  1  0  0  0  0
  1 32  1  0  0  0  0
  1 33  1  0  0  0  0
  2  3  1  0  0  0  0
  2 29  1  0  0  0  0
  3  4  2  0  0  0  0
  3  5  1  0  0  0  0
  5  6  1  0  0  0  0
  5 34  1  0  0  0  0
  6  7  2  0  0  0  0
  6 28  1  0  0  0  0
  7  8  1  0  0  0  0
  7 35  1  0  0  0  0
  8  9  1  0  0  0  0
  8 26  2  0  0  0  0
  9 10  2  0  0  0  0
  9 11  1  0  0  0  0
 11 12  1  0  0  0  0
 11 36  1  0  0  0  0
 12 13  2  0  0  0  0
 12 18  1  0  0  0  0
 13 14  1  0  0  0  0
 13 37  1  0  0  0  0
 14 15  2  0  0  0  0
 14 38  1  0  0  0  0
 15 16  1  0  0  0  0
 15 39  1  0  0  0  0
 16 17  1  0  0  0  0
 16 18  2  0  0  0  0
 18 19  1  0  0  0  0
 19 20  1  0  0  0  0
 20 21  2  0  0  0  0
 20 25  1  0  0  0  0
 21 22  1  0  0  0  0
 21 40  1  0  0  0  0
 22 23  2  0  0  0  0
 22 41  1  0  0  0  0
 23 24  1  0  0  0  0
 23 42  1  0  0  0  0
 24 25  2  0  0  0  0
 24 43  1  0  0  0  0
 26 27  1  0  0  0  0
 26 44  1  0  0  0  0
 27 28  2  0  0  0  0
 27 45  1  0  0  0  0
 28 29  1  0  0  0  0
 29 30  2  0  0  0  0
M  END
$$$$
