
 OpenBabel01122422353D

 49 52  0  0  1  0  0  0  0  0999 V2000
    2.3848    0.3462   -1.0714 C   0  0  0  0  0  0  0  0  0  0  0  0
    2.0135   -0.1921    0.1909 O   0  0  0  0  0  0  0  0  0  0  0  0
    2.9560   -0.9244    0.8559 C   0  0  0  0  0  0  0  0  0  0  0  0
    4.2517   -1.1956    0.4182 C   0  0  0  0  0  0  0  0  0  0  0  0
    5.1160   -1.9639    1.2084 C   0  0  0  0  0  0  0  0  0  0  0  0
    4.6962   -2.4806    2.4449 C   0  0  0  0  0  0  0  0  0  0  0  0
    5.6428   -3.3276    3.2891 C   0  0  3  0  0  0  0  0  0  0  0  0
    5.8710   -2.6563    4.5575 N   0  0  0  0  0  0  0  0  0  0  0  0
    7.1308   -2.3791    5.0251 C   0  0  0  0  0  0  0  0  0  0  0  0
    8.1336   -2.6212    4.3607 O   0  0  0  0  0  0  0  0  0  0  0  0
    7.1743   -1.8173    6.3527 C   0  0  0  0  0  0  0  0  0  0  0  0
    6.3109   -2.0225    7.4191 C   0  0  0  0  0  0  0  0  0  0  0  0
    6.9745   -1.5004    8.5370 C   0  0  0  0  0  0  0  0  0  0  0  0
    8.1519   -0.9686    8.2218 N   0  0  0  0  0  0  0  0  0  0  0  0
    8.2197   -1.0553    6.8640 N   0  0  0  0  0  0  0  0  0  0  0  0
    9.2498   -0.3690    6.1781 C   0  0  0  0  0  0  0  0  0  0  0  0
    9.0866    0.1175    4.8791 C   0  0  0  0  0  0  0  0  0  0  0  0
   10.1575    0.7464    4.2491 C   0  0  0  0  0  0  0  0  0  0  0  0
   11.3499    0.8703    4.9434 C   0  0  0  0  0  0  0  0  0  0  0  0
   11.5263    0.4500    6.2147 N   0  0  0  0  0  0  0  0  0  0  0  0
   10.4664   -0.1494    6.8123 C   0  0  0  0  0  0  0  0  0  0  0  0
    5.1461   -4.7673    3.4592 C   0  0  0  0  0  0  0  0  0  0  0  0
    5.0075   -5.5813    2.3156 C   0  0  0  0  0  0  0  0  0  0  0  0
    4.5234   -6.8872    2.4161 C   0  0  0  0  0  0  0  0  0  0  0  0
    4.1845   -7.3962    3.6614 C   0  0  0  0  0  0  0  0  0  0  0  0
    3.7056   -8.6432    3.7585 F   0  0  0  0  0  0  0  0  0  0  0  0
    4.3356   -6.6297    4.8089 C   0  0  0  0  0  0  0  0  0  0  0  0
    4.8181   -5.3216    4.7105 C   0  0  0  0  0  0  0  0  0  0  0  0
    3.3897   -2.2030    2.8739 C   0  0  0  0  0  0  0  0  0  0  0  0
    2.5346   -1.4299    2.0870 C   0  0  0  0  0  0  0  0  0  0  0  0
    1.5287    0.9071   -1.4586 H   0  0  0  0  0  0  0  0  0  0  0  0
    2.6137   -0.4496   -1.7878 H   0  0  0  0  0  0  0  0  0  0  0  0
    3.2226    1.0439   -0.9725 H   0  0  0  0  0  0  0  0  0  0  0  0
    4.6212   -0.8267   -0.5335 H   0  0  0  0  0  0  0  0  0  0  0  0
    6.1235   -2.1610    0.8439 H   0  0  0  0  0  0  0  0  0  0  0  0
    6.6047   -3.4037    2.7656 H   0  0  0  0  0  0  0  0  0  0  0  0
    5.0659   -2.3582    5.0859 H   0  0  0  0  0  0  0  0  0  0  0  0
    5.3830   -2.5763    7.4176 H   0  0  0  0  0  0  0  0  0  0  0  0
    6.6665   -1.5162    9.5756 H   0  0  0  0  0  0  0  0  0  0  0  0
    8.1431    0.0403    4.3477 H   0  0  0  0  0  0  0  0  0  0  0  0
   10.0644    1.1260    3.2378 H   0  0  0  0  0  0  0  0  0  0  0  0
   12.2201    1.3279    4.4819 H   0  0  0  0  0  0  0  0  0  0  0  0
   10.6548   -0.4892    7.8279 H   0  0  0  0  0  0  0  0  0  0  0  0
    5.2696   -5.1953    1.3317 H   0  0  0  0  0  0  0  0  0  0  0  0
    4.4059   -7.5055    1.5320 H   0  0  0  0  0  0  0  0  0  0  0  0
    4.0769   -7.0549    5.7735 H   0  0  0  0  0  0  0  0  0  0  0  0
    4.9354   -4.7505    5.6268 H   0  0  0  0  0  0  0  0  0  0  0  0
    3.0216   -2.5930    3.8194 H   0  0  0  0  0  0  0  0  0  0  0  0
    1.5248   -1.2229    2.4339 H   0  0  0  0  0  0  0  0  0  0  0  0
  1  2  1  0  0  0  0
  1 31  1  0  0  0  0
  1 32  1  0  0  0  0
  1 33  1  0  0  0  0
  2  3  1  0  0  0  0
  3  4  2  0  0  0  0
  3 30  1  0  0  0  0
  4  5  1  0  0  0  0
  4 34  1  0  0  0  0
  5  6  2  0  0  0  0
  5 35  1  0  0  0  0
  6  7  1  0  0  0  0
  6 29  1  0  0  0  0
  7  8  1  0  0  0  0
  7 22  1  0  0  0  0
  7 36  1  0  0  0  0
  8  9  1  0  0  0  0
  8 37  1  0  0  0  0
  9 10  2  0  0  0  0
  9 11  1  0  0  0  0
 11 12  2  0  0  0  0
 11 15  1  0  0  0  0
 12 13  1  0  0  0  0
 12 38  1  0  0  0  0
 13 14  2  0  0  0  0
 13 39  1  0  0  0  0
 14 15  1  0  0  0  0
 15 16  1  0  0  0  0
 16 17  2  0  0  0  0
 16 21  1  0  0  0  0
 17 18  1  0  0  0  0
 17 40  1  0  0  0  0
 18 19  2  0  0  0  0
 18 41  1  0  0  0  0
 19 20  1  0  0  0  0
 19 42  1  0  0  0  0
 20 21  2  0  0  0  0
 21 43  1  0  0  0  0
 22 23  2  0  0  0  0
 22 28  1  0  0  0  0
 23 24  1  0  0  0  0
 23 44  1  0  0  0  0
 24 25  2  0  0  0  0
 24 45  1  0  0  0  0
 25 26  1  0  0  0  0
 25 27  1  0  0  0  0
 27 28  2  0  0  0  0
 27 46  1  0  0  0  0
 28 47  1  0  0  0  0
 29 30  2  0  0  0  0
 29 48  1  0  0  0  0
 30 49  1  0  0  0  0
M  END
$$$$
