
 OpenBabel01122422363D

 42 45  0  0  0  0  0  0  0  0999 V2000
    1.0552    0.0721    0.4454 O   0  0  0  0  0  0  0  0  0  0  0  0
    2.2384   -0.0048    0.1376 C   0  0  0  0  0  0  0  0  0  0  0  0
    2.8570    0.5840   -0.9502 N   0  0  0  0  0  0  0  0  0  0  0  0
    2.2541    1.4538   -1.8800 C   0  0  0  0  0  0  0  0  0  0  0  0
    1.0339    2.0967   -1.6436 C   0  0  0  0  0  0  0  0  0  0  0  0
    0.4225    2.9239   -2.6068 C   0  0  0  0  0  0  0  0  0  0  0  0
   -0.8563    3.6213   -2.3129 C   0  0  0  0  0  0  0  0  0  0  0  0
   -1.8145    3.0579   -1.4417 C   0  0  0  0  0  0  0  0  0  0  0  0
   -2.9900    3.7401   -1.1073 C   0  0  0  0  0  0  0  0  0  0  0  0
   -3.2380    4.9888   -1.6572 C   0  0  0  0  0  0  0  0  0  0  0  0
   -4.3592    5.6446   -1.3323 F   0  0  0  0  0  0  0  0  0  0  0  0
   -2.3374    5.5675   -2.5341 C   0  0  0  0  0  0  0  0  0  0  0  0
   -1.1617    4.8889   -2.8478 C   0  0  0  0  0  0  0  0  0  0  0  0
   -0.3025    5.5102   -3.6709 F   0  0  0  0  0  0  0  0  0  0  0  0
    1.0925    3.0712   -3.8332 C   0  0  0  0  0  0  0  0  0  0  0  0
    2.3348    2.4755   -4.0643 C   0  0  0  0  0  0  0  0  0  0  0  0
    2.9211    1.6802   -3.0819 C   0  0  0  0  0  0  0  0  0  0  0  0
    3.1235   -0.8705    0.9569 C   0  0  0  0  0  0  0  0  0  0  0  0
    2.5956   -2.0431    1.5027 C   0  0  0  0  0  0  0  0  0  0  0  0
    3.3957   -2.8700    2.2970 C   0  0  0  0  0  0  0  0  0  0  0  0
    4.7264   -2.5287    2.5737 C   0  0  0  0  0  0  0  0  0  0  0  0
    5.5262   -3.3272    3.4105 N   0  0  0  0  0  0  0  0  0  0  0  0
    6.8054   -2.9454    3.7359 N   0  0  0  0  0  0  0  0  0  0  0  0
    7.3048   -3.7943    4.5376 N   0  0  0  0  0  0  0  0  0  0  0  0
    6.3896   -4.7670    4.7689 N   0  0  0  0  0  0  0  0  0  0  0  0
    5.2287   -4.5110    4.0707 C   0  0  0  0  0  0  0  0  0  0  0  0
    4.2246   -5.2010    4.0828 O   0  0  0  0  0  0  0  0  0  0  0  0
    5.2445   -1.3474    2.0159 C   0  0  0  0  0  0  0  0  0  0  0  0
    4.4508   -0.5197    1.2157 C   0  0  0  0  0  0  0  0  0  0  0  0
    3.7797    0.2482   -1.1931 H   0  0  0  0  0  0  0  0  0  0  0  0
    0.5584    1.9845   -0.6734 H   0  0  0  0  0  0  0  0  0  0  0  0
   -1.6560    2.0742   -1.0005 H   0  0  0  0  0  0  0  0  0  0  0  0
   -3.7051    3.3027   -0.4169 H   0  0  0  0  0  0  0  0  0  0  0  0
   -2.5340    6.5433   -2.9617 H   0  0  0  0  0  0  0  0  0  0  0  0
    0.6583    3.6645   -4.6344 H   0  0  0  0  0  0  0  0  0  0  0  0
    2.8426    2.6313   -5.0116 H   0  0  0  0  0  0  0  0  0  0  0  0
    3.8862    1.2244   -3.2827 H   0  0  0  0  0  0  0  0  0  0  0  0
    1.5580   -2.3157    1.3163 H   0  0  0  0  0  0  0  0  0  0  0  0
    2.9431   -3.7719    2.7017 H   0  0  0  0  0  0  0  0  0  0  0  0
    6.5590   -5.5399    5.3921 H   0  0  0  0  0  0  0  0  0  0  0  0
    6.2711   -1.0436    2.2091 H   0  0  0  0  0  0  0  0  0  0  0  0
    4.8707    0.4082    0.8361 H   0  0  0  0  0  0  0  0  0  0  0  0
  1  2  2  0  0  0  0
  2  3  1  0  0  0  0
  2 18  1  0  0  0  0
  3  4  1  0  0  0  0
  3 30  1  0  0  0  0
  4  5  2  0  0  0  0
  4 17  1  0  0  0  0
  5  6  1  0  0  0  0
  5 31  1  0  0  0  0
  6  7  1  0  0  0  0
  6 15  2  0  0  0  0
  7  8  2  0  0  0  0
  7 13  1  0  0  0  0
  8  9  1  0  0  0  0
  8 32  1  0  0  0  0
  9 10  2  0  0  0  0
  9 33  1  0  0  0  0
 10 11  1  0  0  0  0
 10 12  1  0  0  0  0
 12 13  2  0  0  0  0
 12 34  1  0  0  0  0
 13 14  1  0  0  0  0
 15 16  1  0  0  0  0
 15 35  1  0  0  0  0
 16 17  2  0  0  0  0
 16 36  1  0  0  0  0
 17 37  1  0  0  0  0
 18 19  2  0  0  0  0
 18 29  1  0  0  0  0
 19 20  1  0  0  0  0
 19 38  1  0  0  0  0
 20 21  2  0  0  0  0
 20 39  1  0  0  0  0
 21 22  1  0  0  0  0
 21 28  1  0  0  0  0
 22 23  1  0  0  0  0
 22 26  1  0  0  0  0
 23 24  2  0  0  0  0
 24 25  1  0  0  0  0
 25 26  1  0  0  0  0
 25 40  1  0  0  0  0
 26 27  2  0  0  0  0
 28 29  2  0  0  0  0
 28 41  1  0  0  0  0
 29 42  1  0  0  0  0
M  END
$$$$
