
 OpenBabel01122422353D

 45 48  0  0  0  0  0  0  0  0999 V2000
    1.1124    0.4104   -0.9082 O   0  0  0  0  0  0  0  0  0  0  0  0
    2.2279    0.1891   -0.4518 C   0  0  0  0  0  0  0  0  0  0  0  0
    2.8385   -1.0462   -0.4048 N   0  0  0  0  0  0  0  0  0  0  0  0
    2.2561   -2.1890   -0.9181 C   0  0  0  0  0  0  0  0  0  0  0  0
    2.3060   -3.4100   -0.2808 C   0  0  0  0  0  0  0  0  0  0  0  0
    2.9470   -3.7580    0.9954 C   0  0  0  0  0  0  0  0  0  0  0  0
    3.7886   -4.8112    0.8645 F   0  0  0  0  0  0  0  0  0  0  0  0
    3.7190   -2.7188    1.4370 F   0  0  0  0  0  0  0  0  0  0  0  0
    1.6030   -4.2910   -1.0829 N   0  0  0  0  0  0  0  0  0  0  0  0
    1.1797   -5.6326   -0.8219 C   0  0  0  0  0  0  0  0  0  0  0  0
    0.8754   -6.0632    0.4644 C   0  0  0  0  0  0  0  0  0  0  0  0
    0.4499   -7.3710    0.6331 C   0  0  0  0  0  0  0  0  0  0  0  0
    0.3182   -8.2546   -0.3763 N   0  0  0  0  0  0  0  0  0  0  0  0
    0.5953   -7.8012   -1.6180 C   0  0  0  0  0  0  0  0  0  0  0  0
    1.0101   -6.5089   -1.8942 C   0  0  0  0  0  0  0  0  0  0  0  0
    1.2538   -3.7132   -2.2617 N   0  0  0  0  0  0  0  0  0  0  0  0
    1.5510   -2.4204   -2.1076 C   0  0  0  0  0  0  0  0  0  0  0  0
    2.9833    1.2475    0.2976 C   0  0  0  0  0  0  0  0  0  0  0  0
    4.3205    1.3404    0.1919 C   0  0  0  0  0  0  0  0  0  0  0  0
    5.0577    2.2622    0.9325 N   0  0  0  0  0  0  0  0  0  0  0  0
    6.4779    2.3272    0.8028 C   0  0  0  0  0  0  0  0  0  0  0  0
    7.2994    2.2720    1.9387 C   0  0  0  0  0  0  0  0  0  0  0  0
    8.6853    2.3791    1.8118 C   0  0  0  0  0  0  0  0  0  0  0  0
    9.2434    2.5720    0.5544 C   0  0  0  0  0  0  0  0  0  0  0  0
   10.5692    2.7192    0.4369 F   0  0  0  0  0  0  0  0  0  0  0  0
    8.4455    2.6241   -0.5832 C   0  0  0  0  0  0  0  0  0  0  0  0
    7.0616    2.4776   -0.4638 C   0  0  0  0  0  0  0  0  0  0  0  0
    4.4310    3.1676    1.8101 C   0  0  0  0  0  0  0  0  0  0  0  0
    4.9907    4.0152    2.5023 O   0  0  0  0  0  0  0  0  0  0  0  0
    2.9432    3.1105    1.8441 C   0  0  0  0  0  0  0  0  0  0  0  0
    2.2771    2.1972    1.1271 C   0  0  0  0  0  0  0  0  0  0  0  0
    3.5471   -1.1929    0.3094 H   0  0  0  0  0  0  0  0  0  0  0  0
    2.2292   -3.9604    1.7911 H   0  0  0  0  0  0  0  0  0  0  0  0
    0.8732   -5.4189    1.3304 H   0  0  0  0  0  0  0  0  0  0  0  0
    0.1797   -7.7481    1.6182 H   0  0  0  0  0  0  0  0  0  0  0  0
    0.4709   -8.5321   -2.4147 H   0  0  0  0  0  0  0  0  0  0  0  0
    1.2165   -6.2154   -2.9192 H   0  0  0  0  0  0  0  0  0  0  0  0
    1.3050   -1.7250   -2.9013 H   0  0  0  0  0  0  0  0  0  0  0  0
    4.8954    0.6659   -0.4372 H   0  0  0  0  0  0  0  0  0  0  0  0
    6.8668    2.1341    2.9271 H   0  0  0  0  0  0  0  0  0  0  0  0
    9.3268    2.3309    2.6859 H   0  0  0  0  0  0  0  0  0  0  0  0
    8.9038    2.8009   -1.5511 H   0  0  0  0  0  0  0  0  0  0  0  0
    6.4433    2.5581   -1.3541 H   0  0  0  0  0  0  0  0  0  0  0  0
    2.4487    3.8512    2.4600 H   0  0  0  0  0  0  0  0  0  0  0  0
    1.1901    2.1637    1.1464 H   0  0  0  0  0  0  0  0  0  0  0  0
  1  2  2  0  0  0  0
  2  3  1  0  0  0  0
  2 18  1  0  0  0  0
  3  4  1  0  0  0  0
  3 32  1  0  0  0  0
  4  5  2  0  0  0  0
  4 17  1  0  0  0  0
  5  6  1  0  0  0  0
  5  9  1  0  0  0  0
  6  7  1  0  0  0  0
  6  8  1  0  0  0  0
  6 33  1  0  0  0  0
  9 10  1  0  0  0  0
  9 16  1  0  0  0  0
 10 11  2  0  0  0  0
 10 15  1  0  0  0  0
 11 12  1  0  0  0  0
 11 34  1  0  0  0  0
 12 13  2  0  0  0  0
 12 35  1  0  0  0  0
 13 14  1  0  0  0  0
 14 15  2  0  0  0  0
 14 36  1  0  0  0  0
 15 37  1  0  0  0  0
 16 17  2  0  0  0  0
 17 38  1  0  0  0  0
 18 19  2  0  0  0  0
 18 31  1  0  0  0  0
 19 20  1  0  0  0  0
 19 39  1  0  0  0  0
 20 21  1  0  0  0  0
 20 28  1  0  0  0  0
 21 22  2  0  0  0  0
 21 27  1  0  0  0  0
 22 23  1  0  0  0  0
 22 40  1  0  0  0  0
 23 24  2  0  0  0  0
 23 41  1  0  0  0  0
 24 25  1  0  0  0  0
 24 26  1  0  0  0  0
 26 27  2  0  0  0  0
 26 42  1  0  0  0  0
 27 43  1  0  0  0  0
 28 29  2  0  0  0  0
 28 30  1  0  0  0  0
 30 31  2  0  0  0  0
 30 44  1  0  0  0  0
 31 45  1  0  0  0  0
M  END
$$$$
