
 OpenBabel01122422363D

 48 51  0  0  0  0  0  0  0  0999 V2000
    2.6188    0.8050    0.7052 O   0  0  0  0  0  0  0  0  0  0  0  0
    2.1987    0.0199   -0.1418 C   0  0  0  0  0  0  0  0  0  0  0  0
    0.7108   -0.0543   -0.4347 C   0  0  0  0  0  0  0  0  0  0  0  0
   -0.0308   -1.1698    0.2838 C   0  0  0  0  0  0  0  0  0  0  0  0
    0.4105   -1.5759    1.5588 C   0  0  0  0  0  0  0  0  0  0  0  0
   -0.2507   -2.5742    2.2666 C   0  0  0  0  0  0  0  0  0  0  0  0
   -1.3858   -3.1612    1.7215 C   0  0  0  0  0  0  0  0  0  0  0  0
   -2.0278   -4.1505    2.4237 O   0  0  0  0  0  0  0  0  0  0  0  0
   -1.8942   -2.7584    0.4723 C   0  0  0  0  0  0  0  0  0  0  0  0
   -3.0690   -3.3333   -0.0572 C   0  0  0  0  0  0  0  0  0  0  0  0
   -3.5834   -2.9399   -1.2901 C   0  0  0  0  0  0  0  0  0  0  0  0
   -2.9325   -1.9582   -2.0186 C   0  0  0  0  0  0  0  0  0  0  0  0
   -1.7722   -1.3687   -1.5103 C   0  0  0  0  0  0  0  0  0  0  0  0
   -1.2161   -1.7491   -0.2638 C   0  0  0  0  0  0  0  0  0  0  0  0
    2.9699   -0.8309   -0.9264 N   0  0  0  0  0  0  0  0  0  0  0  0
    4.3642   -1.0194   -0.7961 C   0  0  0  0  0  0  0  0  0  0  0  0
    5.0552   -0.6790    0.3695 C   0  0  0  0  0  0  0  0  0  0  0  0
    6.4440   -0.8048    0.4668 C   0  0  0  0  0  0  0  0  0  0  0  0
    7.1587   -0.4427    1.6377 N   0  0  0  0  0  0  0  0  0  0  0  0
    6.5902   -0.3075    2.8963 C   0  0  0  0  0  0  0  0  0  0  0  0
    5.4401   -0.6150    3.2036 O   0  0  0  0  0  0  0  0  0  0  0  0
    7.4473    0.1703    3.9918 C   0  0  0  0  0  0  0  0  0  0  0  0
    8.5578    0.9708    3.8442 C   0  0  0  0  0  0  0  0  0  0  0  0
    9.3037    1.4112    4.8837 N   0  0  0  0  0  0  0  0  0  0  0  0
    8.8855    1.0380    6.1073 C   0  0  0  0  0  0  0  0  0  0  0  0
    7.8152    0.2768    6.3743 N   0  0  0  0  0  0  0  0  0  0  0  0
    7.1081   -0.1353    5.2974 C   0  0  0  0  0  0  0  0  0  0  0  0
    7.1532   -1.2784   -0.6385 C   0  0  0  0  0  0  0  0  0  0  0  0
    6.4683   -1.6835   -1.7906 C   0  0  0  0  0  0  0  0  0  0  0  0
    5.0760   -1.5683   -1.8647 C   0  0  0  0  0  0  0  0  0  0  0  0
    0.6141   -0.1339   -1.5207 H   0  0  0  0  0  0  0  0  0  0  0  0
    0.2632    0.9041   -0.1413 H   0  0  0  0  0  0  0  0  0  0  0  0
    1.2798   -1.1129    2.0267 H   0  0  0  0  0  0  0  0  0  0  0  0
    0.1297   -2.8699    3.2395 H   0  0  0  0  0  0  0  0  0  0  0  0
   -1.5300   -4.3273    3.2383 H   0  0  0  0  0  0  0  0  0  0  0  0
   -3.5983   -4.0994    0.5071 H   0  0  0  0  0  0  0  0  0  0  0  0
   -4.4913   -3.3978   -1.6720 H   0  0  0  0  0  0  0  0  0  0  0  0
   -3.3259   -1.6420   -2.9809 H   0  0  0  0  0  0  0  0  0  0  0  0
   -1.3172   -0.5916   -2.1169 H   0  0  0  0  0  0  0  0  0  0  0  0
    2.5226   -1.2601   -1.7264 H   0  0  0  0  0  0  0  0  0  0  0  0
    4.4954   -0.3032    1.2163 H   0  0  0  0  0  0  0  0  0  0  0  0
    8.1655   -0.4153    1.5517 H   0  0  0  0  0  0  0  0  0  0  0  0
    8.8920    1.3254    2.8749 H   0  0  0  0  0  0  0  0  0  0  0  0
    9.4609    1.3887    6.9572 H   0  0  0  0  0  0  0  0  0  0  0  0
    6.2315   -0.7373    5.5275 H   0  0  0  0  0  0  0  0  0  0  0  0
    8.2347   -1.3736   -0.6120 H   0  0  0  0  0  0  0  0  0  0  0  0
    7.0229   -2.0843   -2.6363 H   0  0  0  0  0  0  0  0  0  0  0  0
    4.5709   -1.8741   -2.7766 H   0  0  0  0  0  0  0  0  0  0  0  0
  1  2  2  0  0  0  0
  2  3  1  0  0  0  0
  2 15  1  0  0  0  0
  3  4  1  0  0  0  0
  3 31  1  0  0  0  0
  3 32  1  0  0  0  0
  4  5  2  0  0  0  0
  4 14  1  0  0  0  0
  5  6  1  0  0  0  0
  5 33  1  0  0  0  0
  6  7  2  0  0  0  0
  6 34  1  0  0  0  0
  7  8  1  0  0  0  0
  7  9  1  0  0  0  0
  8 35  1  0  0  0  0
  9 10  2  0  0  0  0
  9 14  1  0  0  0  0
 10 11  1  0  0  0  0
 10 36  1  0  0  0  0
 11 12  2  0  0  0  0
 11 37  1  0  0  0  0
 12 13  1  0  0  0  0
 12 38  1  0  0  0  0
 13 14  2  0  0  0  0
 13 39  1  0  0  0  0
 15 16  1  0  0  0  0
 15 40  1  0  0  0  0
 16 17  2  0  0  0  0
 16 30  1  0  0  0  0
 17 18  1  0  0  0  0
 17 41  1  0  0  0  0
 18 19  1  0  0  0  0
 18 28  2  0  0  0  0
 19 20  1  0  0  0  0
 19 42  1  0  0  0  0
 20 21  2  0  0  0  0
 20 22  1  0  0  0  0
 22 23  2  0  0  0  0
 22 27  1  0  0  0  0
 23 24  1  0  0  0  0
 23 43  1  0  0  0  0
 24 25  2  0  0  0  0
 25 26  1  0  0  0  0
 25 44  1  0  0  0  0
 26 27  2  0  0  0  0
 27 45  1  0  0  0  0
 28 29  1  0  0  0  0
 28 46  1  0  0  0  0
 29 30  2  0  0  0  0
 29 47  1  0  0  0  0
 30 48  1  0  0  0  0
M  END
$$$$
