
 OpenBabel01122422363D

 44 47  0  0  0  0  0  0  0  0999 V2000
    0.9423   -0.3800    0.3793 O   0  0  0  0  0  0  0  0  0  0  0  0
    2.0929   -0.0309    0.1305 C   0  0  0  0  0  0  0  0  0  0  0  0
    2.7048    1.1081    0.6361 N   0  0  0  0  0  0  0  0  0  0  0  0
    2.1177    2.0779    1.4177 C   0  0  0  0  0  0  0  0  0  0  0  0
    0.9632    1.9272    2.0903 C   0  0  0  0  0  0  0  0  0  0  0  0
    0.3689    2.9531    2.8207 N   0  0  0  0  0  0  0  0  0  0  0  0
   -0.8971    2.7388    3.4573 C   0  0  0  0  0  0  0  0  0  0  0  0
   -1.9058    2.0137    2.8020 C   0  0  0  0  0  0  0  0  0  0  0  0
   -3.1541    1.8288    3.4008 C   0  0  0  0  0  0  0  0  0  0  0  0
   -3.3945    2.3320    4.6761 C   0  0  0  0  0  0  0  0  0  0  0  0
   -2.3920    3.0243    5.3516 C   0  0  0  0  0  0  0  0  0  0  0  0
   -1.1544    3.2392    4.7397 C   0  0  0  0  0  0  0  0  0  0  0  0
    0.9542    4.2308    2.8766 C   0  0  0  0  0  0  0  0  0  0  0  0
    0.4941    5.2302    3.4210 O   0  0  0  0  0  0  0  0  0  0  0  0
    2.2477    4.3816    2.1519 C   0  0  0  0  0  0  0  0  0  0  0  0
    2.7881    3.3568    1.4826 C   0  0  0  0  0  0  0  0  0  0  0  0
    2.9290   -0.7726   -0.7745 C   0  0  0  0  0  0  0  0  0  0  0  0
    4.2530   -1.1457   -0.6307 C   0  0  0  0  0  0  0  0  0  0  0  0
    4.4693   -2.0299   -1.6839 C   0  0  0  0  0  0  0  0  0  0  0  0
    5.5721   -2.7098   -2.0002 O   0  0  0  0  0  0  0  0  0  0  0  0
    3.4095   -2.2310   -2.4447 N   0  0  0  0  0  0  0  0  0  0  0  0
    2.4858   -1.3546   -1.9602 N   0  0  0  0  0  0  0  0  0  0  0  0
    1.3153   -1.0990   -2.7210 C   0  0  0  0  0  0  0  0  0  0  0  0
    0.8062   -2.1034   -3.5597 C   0  0  0  0  0  0  0  0  0  0  0  0
   -0.3244   -1.8564   -4.3442 C   0  0  0  0  0  0  0  0  0  0  0  0
   -0.9398   -0.6052   -4.3150 C   0  0  0  0  0  0  0  0  0  0  0  0
   -0.4227    0.4024   -3.5024 C   0  0  0  0  0  0  0  0  0  0  0  0
    0.7001    0.1540   -2.7141 C   0  0  0  0  0  0  0  0  0  0  0  0
    1.2281    1.1904   -2.0470 F   0  0  0  0  0  0  0  0  0  0  0  0
    3.6016    1.3397    0.2290 H   0  0  0  0  0  0  0  0  0  0  0  0
    0.4487    0.9734    2.1261 H   0  0  0  0  0  0  0  0  0  0  0  0
   -1.7529    1.6323    1.7950 H   0  0  0  0  0  0  0  0  0  0  0  0
   -3.9385    1.3026    2.8635 H   0  0  0  0  0  0  0  0  0  0  0  0
   -4.3658    2.1885    5.1432 H   0  0  0  0  0  0  0  0  0  0  0  0
   -2.5714    3.4054    6.3532 H   0  0  0  0  0  0  0  0  0  0  0  0
   -0.3846    3.7757    5.2889 H   0  0  0  0  0  0  0  0  0  0  0  0
    2.7001    5.3648    2.1846 H   0  0  0  0  0  0  0  0  0  0  0  0
    3.7245    3.5004    0.9556 H   0  0  0  0  0  0  0  0  0  0  0  0
    4.9238   -0.8804    0.1752 H   0  0  0  0  0  0  0  0  0  0  0  0
    6.2909   -2.4800   -1.3940 H   0  0  0  0  0  0  0  0  0  0  0  0
    1.2731   -3.0861   -3.5978 H   0  0  0  0  0  0  0  0  0  0  0  0
   -0.7204   -2.6419   -4.9841 H   0  0  0  0  0  0  0  0  0  0  0  0
   -1.8094   -0.4101   -4.9376 H   0  0  0  0  0  0  0  0  0  0  0  0
   -0.8725    1.3904   -3.4951 H   0  0  0  0  0  0  0  0  0  0  0  0
  1  2  2  0  0  0  0
  2  3  1  0  0  0  0
  2 17  1  0  0  0  0
  3  4  1  0  0  0  0
  3 30  1  0  0  0  0
  4  5  2  0  0  0  0
  4 16  1  0  0  0  0
  5  6  1  0  0  0  0
  5 31  1  0  0  0  0
  6  7  1  0  0  0  0
  6 13  1  0  0  0  0
  7  8  2  0  0  0  0
  7 12  1  0  0  0  0
  8  9  1  0  0  0  0
  8 32  1  0  0  0  0
  9 10  2  0  0  0  0
  9 33  1  0  0  0  0
 10 11  1  0  0  0  0
 10 34  1  0  0  0  0
 11 12  2  0  0  0  0
 11 35  1  0  0  0  0
 12 36  1  0  0  0  0
 13 14  2  0  0  0  0
 13 15  1  0  0  0  0
 15 16  2  0  0  0  0
 15 37  1  0  0  0  0
 16 38  1  0  0  0  0
 17 18  2  0  0  0  0
 17 22  1  0  0  0  0
 18 19  1  0  0  0  0
 18 39  1  0  0  0  0
 19 20  1  0  0  0  0
 19 21  2  0  0  0  0
 20 40  1  0  0  0  0
 21 22  1  0  0  0  0
 22 23  1  0  0  0  0
 23 24  2  0  0  0  0
 23 28  1  0  0  0  0
 24 25  1  0  0  0  0
 24 41  1  0  0  0  0
 25 26  2  0  0  0  0
 25 42  1  0  0  0  0
 26 27  1  0  0  0  0
 26 43  1  0  0  0  0
 27 28  2  0  0  0  0
 27 44  1  0  0  0  0
 28 29  1  0  0  0  0
M  END
$$$$
