
 OpenBabel01122422353D

 49 52  0  0  1  0  0  0  0  0999 V2000
    0.8591    0.0740    0.0747 N   0  0  0  0  0  0  0  0  0  0  0  0
    2.3210    0.0403   -0.0524 C   0  0  0  0  0  0  0  0  0  0  0  0
    2.9425   -1.3846    0.0296 C   0  0  3  0  0  0  0  0  0  0  0  0
    2.4128   -2.2691   -1.0018 N   0  0  0  0  0  0  0  0  0  0  0  0
    1.2873   -3.0519   -0.7809 C   0  0  0  0  0  0  0  0  0  0  0  0
    0.6197   -3.0773    0.2857 O   0  0  0  0  0  0  0  0  0  0  0  0
    0.8462   -3.8305   -2.0118 C   0  0  0  0  0  0  0  0  0  0  0  0
    1.1697   -3.3272   -3.1691 N   0  0  0  0  0  0  0  0  0  0  0  0
    0.8225   -4.0317   -4.3193 N   0  0  0  0  0  0  0  0  0  0  0  0
    1.2504   -3.4370   -5.5447 C   0  0  0  0  0  0  0  0  0  0  0  0
    1.4914   -2.0428   -5.6149 C   0  0  0  0  0  0  0  0  0  0  0  0
    1.9090   -1.4271   -6.7981 C   0  0  0  0  0  0  0  0  0  0  0  0
    2.1145   -2.1804   -7.9533 C   0  0  0  0  0  0  0  0  0  0  0  0
    1.8967   -3.5581   -7.9113 C   0  0  0  0  0  0  0  0  0  0  0  0
    1.4785   -4.1666   -6.7210 C   0  0  0  0  0  0  0  0  0  0  0  0
    1.3098   -5.4976   -6.7557 F   0  0  0  0  0  0  0  0  0  0  0  0
    0.0547   -5.1828   -4.2516 C   0  0  0  0  0  0  0  0  0  0  0  0
   -0.3141   -5.7920   -3.1295 C   0  0  0  0  0  0  0  0  0  0  0  0
    0.1627   -5.1935   -1.9051 C   0  0  0  0  0  0  0  0  0  0  0  0
    0.0394   -5.7370   -0.8235 O   0  0  0  0  0  0  0  0  0  0  0  0
    4.4633   -1.4320   -0.0151 C   0  0  0  0  0  0  0  0  0  0  0  0
    5.0851   -2.5984    0.4587 C   0  0  0  0  0  0  0  0  0  0  0  0
    6.4673   -2.7398    0.4075 C   0  0  0  0  0  0  0  0  0  0  0  0
    7.2627   -1.6599    0.0151 C   0  0  0  0  0  0  0  0  0  0  0  0
    8.6546   -1.7529    0.0137 C   0  0  0  0  0  0  0  0  0  0  0  0
    9.4120   -0.6173    0.2620 C   0  0  0  0  0  0  0  0  0  0  0  0
    8.8329    0.6246    0.0452 C   0  0  0  0  0  0  0  0  0  0  0  0
    7.5039    0.7041   -0.3860 C   0  0  0  0  0  0  0  0  0  0  0  0
    6.6718   -0.4276   -0.3027 C   0  0  0  0  0  0  0  0  0  0  0  0
    5.2734   -0.3661   -0.4455 C   0  0  0  0  0  0  0  0  0  0  0  0
    0.5542    1.0176    0.3018 H   0  0  0  0  0  0  0  0  0  0  0  0
    0.5694   -0.5257    0.8521 H   0  0  0  0  0  0  0  0  0  0  0  0
    2.7523    0.6564    0.7418 H   0  0  0  0  0  0  0  0  0  0  0  0
    2.5700    0.5087   -1.0117 H   0  0  0  0  0  0  0  0  0  0  0  0
    2.6457   -1.7900    1.0012 H   0  0  0  0  0  0  0  0  0  0  0  0
    2.7641   -2.2049   -1.9489 H   0  0  0  0  0  0  0  0  0  0  0  0
    1.3223   -1.4203   -4.7379 H   0  0  0  0  0  0  0  0  0  0  0  0
    2.0677   -0.3525   -6.8183 H   0  0  0  0  0  0  0  0  0  0  0  0
    2.4360   -1.7039   -8.8709 H   0  0  0  0  0  0  0  0  0  0  0  0
    2.0611   -4.1685   -8.7942 H   0  0  0  0  0  0  0  0  0  0  0  0
   -0.2533   -5.5972   -5.2175 H   0  0  0  0  0  0  0  0  0  0  0  0
   -0.9134   -6.6905   -3.0914 H   0  0  0  0  0  0  0  0  0  0  0  0
    4.4873   -3.4015    0.8910 H   0  0  0  0  0  0  0  0  0  0  0  0
    6.9250   -3.6435    0.8037 H   0  0  0  0  0  0  0  0  0  0  0  0
    9.1487   -2.7102   -0.1756 H   0  0  0  0  0  0  0  0  0  0  0  0
   10.4465   -0.7100    0.5814 H   0  0  0  0  0  0  0  0  0  0  0  0
    9.4295    1.5230    0.1694 H   0  0  0  0  0  0  0  0  0  0  0  0
    7.1023    1.6708   -0.6753 H   0  0  0  0  0  0  0  0  0  0  0  0
    4.8313    0.5527   -0.8193 H   0  0  0  0  0  0  0  0  0  0  0  0
  1  2  1  0  0  0  0
  1 31  1  0  0  0  0
  1 32  1  0  0  0  0
  2  3  1  0  0  0  0
  2 33  1  0  0  0  0
  2 34  1  0  0  0  0
  3  4  1  0  0  0  0
  3 21  1  0  0  0  0
  3 35  1  0  0  0  0
  4  5  1  0  0  0  0
  4 36  1  0  0  0  0
  5  6  2  0  0  0  0
  5  7  1  0  0  0  0
  7  8  2  0  0  0  0
  7 19  1  0  0  0  0
  8  9  1  0  0  0  0
  9 10  1  0  0  0  0
  9 17  1  0  0  0  0
 10 11  2  0  0  0  0
 10 15  1  0  0  0  0
 11 12  1  0  0  0  0
 11 37  1  0  0  0  0
 12 13  2  0  0  0  0
 12 38  1  0  0  0  0
 13 14  1  0  0  0  0
 13 39  1  0  0  0  0
 14 15  2  0  0  0  0
 14 40  1  0  0  0  0
 15 16  1  0  0  0  0
 17 18  2  0  0  0  0
 17 41  1  0  0  0  0
 18 19  1  0  0  0  0
 18 42  1  0  0  0  0
 19 20  2  0  0  0  0
 21 22  2  0  0  0  0
 21 30  1  0  0  0  0
 22 23  1  0  0  0  0
 22 43  1  0  0  0  0
 23 24  2  0  0  0  0
 23 44  1  0  0  0  0
 24 25  1  0  0  0  0
 24 29  1  0  0  0  0
 25 26  2  0  0  0  0
 25 45  1  0  0  0  0
 26 27  1  0  0  0  0
 26 46  1  0  0  0  0
 27 28  2  0  0  0  0
 27 47  1  0  0  0  0
 28 29  1  0  0  0  0
 28 48  1  0  0  0  0
 29 30  2  0  0  0  0
 30 49  1  0  0  0  0
M  END
$$$$
