
 OpenBabel01122422363D

 44 46  0  0  0  0  0  0  0  0999 V2000
    1.0511    0.0019    0.0859 N   0  0  0  0  0  0  0  0  0  0  0  0
    2.3121    0.0019    0.0859 C   0  0  0  0  0  0  0  0  0  0  0  0
    3.8321    0.0019    0.0859 C   0  0  0  0  0  0  0  0  0  0  0  0
    4.5042    1.1770    0.2231 C   0  0  0  0  0  0  0  0  0  0  0  0
    3.8560    2.4202    0.3056 N   0  0  0  0  0  0  0  0  0  0  0  0
    4.4131    3.7117    0.3726 C   0  0  0  0  0  0  0  0  0  0  0  0
    5.6203    3.9561    0.3536 O   0  0  0  0  0  0  0  0  0  0  0  0
    3.3502    4.8556    0.5149 C   0  0  0  0  0  0  0  0  0  0  0  0
    2.0880    4.3525    0.3613 F   0  0  0  0  0  0  0  0  0  0  0  0
    3.3787    5.3611    1.7871 F   0  0  0  0  0  0  0  0  0  0  0  0
    3.6148    5.9821   -0.4556 C   0  0  0  0  0  0  0  0  0  0  0  0
    2.7409    6.4625   -1.3665 C   0  0  0  0  0  0  0  0  0  0  0  0
    2.9940    7.6157   -2.2553 C   0  0  0  0  0  0  0  0  0  0  0  0
    4.2701    7.9606   -2.7171 C   0  0  0  0  0  0  0  0  0  0  0  0
    4.4546    9.0656   -3.5563 C   0  0  0  0  0  0  0  0  0  0  0  0
    3.3622    9.8310   -3.9562 C   0  0  0  0  0  0  0  0  0  0  0  0
    2.0859    9.4919   -3.5266 C   0  0  0  0  0  0  0  0  0  0  0  0
    1.9020    8.3874   -2.6858 C   0  0  0  0  0  0  0  0  0  0  0  0
    5.9485    1.1022    0.3241 C   0  0  0  0  0  0  0  0  0  0  0  0
    6.5892   -0.0695    0.2783 C   0  0  0  0  0  0  0  0  0  0  0  0
    5.9166   -1.2734    0.1502 N   0  0  0  0  0  0  0  0  0  0  0  0
    6.6319   -2.5043    0.0772 C   0  0  0  0  0  0  0  0  0  0  0  0
    7.7261   -2.6272   -0.7898 C   0  0  0  0  0  0  0  0  0  0  0  0
    8.3580   -3.8626   -0.9466 C   0  0  0  0  0  0  0  0  0  0  0  0
    7.9314   -4.9638   -0.2065 C   0  0  0  0  0  0  0  0  0  0  0  0
    6.8759   -4.8364    0.6945 C   0  0  0  0  0  0  0  0  0  0  0  0
    6.2242   -3.6122    0.8274 C   0  0  0  0  0  0  0  0  0  0  0  0
    4.5169   -1.3139    0.0428 C   0  0  0  0  0  0  0  0  0  0  0  0
    3.8382   -2.3274   -0.1141 O   0  0  0  0  0  0  0  0  0  0  0  0
    2.8338    2.4253    0.3044 H   0  0  0  0  0  0  0  0  0  0  0  0
    4.5897    6.4451   -0.3363 H   0  0  0  0  0  0  0  0  0  0  0  0
    1.7485    6.0231   -1.4413 H   0  0  0  0  0  0  0  0  0  0  0  0
    5.1431    7.3759   -2.4369 H   0  0  0  0  0  0  0  0  0  0  0  0
    5.4530    9.3264   -3.9011 H   0  0  0  0  0  0  0  0  0  0  0  0
    3.5087   10.6958   -4.6067 H   0  0  0  0  0  0  0  0  0  0  0  0
    1.2283   10.0836   -3.8377 H   0  0  0  0  0  0  0  0  0  0  0  0
    0.8927    8.1456   -2.3605 H   0  0  0  0  0  0  0  0  0  0  0  0
    6.5455    1.9904    0.4865 H   0  0  0  0  0  0  0  0  0  0  0  0
    7.6694   -0.1088    0.3952 H   0  0  0  0  0  0  0  0  0  0  0  0
    8.0452   -1.7924   -1.4060 H   0  0  0  0  0  0  0  0  0  0  0  0
    9.1645   -3.9693   -1.6663 H   0  0  0  0  0  0  0  0  0  0  0  0
    8.4146   -5.9292   -0.3409 H   0  0  0  0  0  0  0  0  0  0  0  0
    6.5475   -5.6908    1.2772 H   0  0  0  0  0  0  0  0  0  0  0  0
    5.3965   -3.5331    1.5305 H   0  0  0  0  0  0  0  0  0  0  0  0
  1  2  3  0  0  0  0
  2  3  1  0  0  0  0
  3  4  2  0  0  0  0
  3 28  1  0  0  0  0
  4  5  1  0  0  0  0
  4 19  1  0  0  0  0
  5  6  1  0  0  0  0
  5 30  1  0  0  0  0
  6  7  2  0  0  0  0
  6  8  1  0  0  0  0
  8  9  1  0  0  0  0
  8 10  1  0  0  0  0
  8 11  1  0  0  0  0
 11 12  2  0  0  0  0
 11 31  1  0  0  0  0
 12 13  1  0  0  0  0
 12 32  1  0  0  0  0
 13 14  2  0  0  0  0
 13 18  1  0  0  0  0
 14 15  1  0  0  0  0
 14 33  1  0  0  0  0
 15 16  2  0  0  0  0
 15 34  1  0  0  0  0
 16 17  1  0  0  0  0
 16 35  1  0  0  0  0
 17 18  2  0  0  0  0
 17 36  1  0  0  0  0
 18 37  1  0  0  0  0
 19 20  2  0  0  0  0
 19 38  1  0  0  0  0
 20 21  1  0  0  0  0
 20 39  1  0  0  0  0
 21 22  1  0  0  0  0
 21 28  1  0  0  0  0
 22 23  2  0  0  0  0
 22 27  1  0  0  0  0
 23 24  1  0  0  0  0
 23 40  1  0  0  0  0
 24 25  2  0  0  0  0
 24 41  1  0  0  0  0
 25 26  1  0  0  0  0
 25 42  1  0  0  0  0
 26 27  2  0  0  0  0
 26 43  1  0  0  0  0
 27 44  1  0  0  0  0
 28 29  2  0  0  0  0
M  END
$$$$
