
 OpenBabel01122422363D

 43 46  0  0  0  0  0  0  0  0999 V2000
    1.2062    0.7012    0.1581 O   0  0  0  0  0  0  0  0  0  0  0  0
    2.2816    0.1123    0.0634 C   0  0  0  0  0  0  0  0  0  0  0  0
    2.6398   -0.7687   -0.9418 N   0  0  0  0  0  0  0  0  0  0  0  0
    1.9707   -1.1083   -2.0921 C   0  0  0  0  0  0  0  0  0  0  0  0
    0.7394   -0.7230   -2.4504 C   0  0  0  0  0  0  0  0  0  0  0  0
    0.1550   -1.1377   -3.6914 C   0  0  0  0  0  0  0  0  0  0  0  0
    0.8279   -1.9470   -4.5203 C   0  0  0  0  0  0  0  0  0  0  0  0
    2.1146   -2.3845   -4.2301 N   0  0  0  0  0  0  0  0  0  0  0  0
    2.7888   -3.2913   -5.1063 C   0  0  0  0  0  0  0  0  0  0  0  0
    2.1265   -4.4343   -5.5751 C   0  0  0  0  0  0  0  0  0  0  0  0
    2.8052   -5.3756   -6.3520 C   0  0  0  0  0  0  0  0  0  0  0  0
    4.1355   -5.1594   -6.7067 C   0  0  0  0  0  0  0  0  0  0  0  0
    4.7889   -4.0026   -6.2869 C   0  0  0  0  0  0  0  0  0  0  0  0
    4.1230   -3.0786   -5.4792 C   0  0  0  0  0  0  0  0  0  0  0  0
    2.7594   -1.9961   -3.0441 C   0  0  0  0  0  0  0  0  0  0  0  0
    3.8925   -2.3351   -2.6848 O   0  0  0  0  0  0  0  0  0  0  0  0
    3.4189    0.4851    0.9551 C   0  0  0  0  0  0  0  0  0  0  0  0
    3.5939    1.8617    1.1512 C   0  0  0  0  0  0  0  0  0  0  0  0
    4.8804    2.3667    1.2098 C   0  0  0  0  0  0  0  0  0  0  0  0
    5.9600    1.4991    1.0780 C   0  0  0  0  0  0  0  0  0  0  0  0
    5.7726    0.1250    1.2605 C   0  0  0  0  0  0  0  0  0  0  0  0
    6.8731   -0.7140    1.5179 C   0  0  0  0  0  0  0  0  0  0  0  0
    6.6711   -2.0632    1.7943 C   0  0  0  0  0  0  0  0  0  0  0  0
    7.7118   -2.8706    2.1603 O   0  0  0  0  0  0  0  0  0  0  0  0
    5.4041   -2.6173    1.7384 C   0  0  0  0  0  0  0  0  0  0  0  0
    4.3069   -1.8071    1.4440 C   0  0  0  0  0  0  0  0  0  0  0  0
    4.4815   -0.4148    1.2301 C   0  0  0  0  0  0  0  0  0  0  0  0
    3.5893   -1.1486   -0.9310 H   0  0  0  0  0  0  0  0  0  0  0  0
    0.1388   -0.0792   -1.8120 H   0  0  0  0  0  0  0  0  0  0  0  0
   -0.8351   -0.7693   -3.9453 H   0  0  0  0  0  0  0  0  0  0  0  0
    0.4014   -2.2469   -5.4722 H   0  0  0  0  0  0  0  0  0  0  0  0
    1.1019   -4.6407   -5.2771 H   0  0  0  0  0  0  0  0  0  0  0  0
    2.3017   -6.2879   -6.6602 H   0  0  0  0  0  0  0  0  0  0  0  0
    4.6668   -5.8974   -7.3019 H   0  0  0  0  0  0  0  0  0  0  0  0
    5.8222   -3.8250   -6.5729 H   0  0  0  0  0  0  0  0  0  0  0  0
    4.6510   -2.1847   -5.1559 H   0  0  0  0  0  0  0  0  0  0  0  0
    2.7451    2.5415    1.1127 H   0  0  0  0  0  0  0  0  0  0  0  0
    5.0462    3.4389    1.2715 H   0  0  0  0  0  0  0  0  0  0  0  0
    6.9432    1.9023    0.8641 H   0  0  0  0  0  0  0  0  0  0  0  0
    7.8740   -0.2938    1.5414 H   0  0  0  0  0  0  0  0  0  0  0  0
    8.4891   -2.3117    2.3082 H   0  0  0  0  0  0  0  0  0  0  0  0
    5.2543   -3.6730    1.9640 H   0  0  0  0  0  0  0  0  0  0  0  0
    3.3116   -2.2484    1.4444 H   0  0  0  0  0  0  0  0  0  0  0  0
  1  2  2  0  0  0  0
  2  3  1  0  0  0  0
  2 17  1  0  0  0  0
  3  4  1  0  0  0  0
  3 28  1  0  0  0  0
  4  5  2  0  0  0  0
  4 15  1  0  0  0  0
  5  6  1  0  0  0  0
  5 29  1  0  0  0  0
  6  7  2  0  0  0  0
  6 30  1  0  0  0  0
  7  8  1  0  0  0  0
  7 31  1  0  0  0  0
  8  9  1  0  0  0  0
  8 15  1  0  0  0  0
  9 10  2  0  0  0  0
  9 14  1  0  0  0  0
 10 11  1  0  0  0  0
 10 32  1  0  0  0  0
 11 12  2  0  0  0  0
 11 33  1  0  0  0  0
 12 13  1  0  0  0  0
 12 34  1  0  0  0  0
 13 14  2  0  0  0  0
 13 35  1  0  0  0  0
 14 36  1  0  0  0  0
 15 16  2  0  0  0  0
 17 18  2  0  0  0  0
 17 27  1  0  0  0  0
 18 19  1  0  0  0  0
 18 37  1  0  0  0  0
 19 20  2  0  0  0  0
 19 38  1  0  0  0  0
 20 21  1  0  0  0  0
 20 39  1  0  0  0  0
 21 22  2  0  0  0  0
 21 27  1  0  0  0  0
 22 23  1  0  0  0  0
 22 40  1  0  0  0  0
 23 24  1  0  0  0  0
 23 25  2  0  0  0  0
 24 41  1  0  0  0  0
 25 26  1  0  0  0  0
 25 42  1  0  0  0  0
 26 27  2  0  0  0  0
 26 43  1  0  0  0  0
M  END
$$$$
