
 OpenBabel01122422363D

 50 53  0  0  1  0  0  0  0  0999 V2000
    3.1755   -2.1631   -1.0288 O   0  0  0  0  0  0  0  0  0  0  0  0
    3.4305   -1.0472   -0.6013 C   0  0  0  0  0  0  0  0  0  0  0  0
    3.0136    0.1343   -1.1746 N   0  0  0  0  0  0  0  0  0  0  0  0
    2.2897    0.1439   -2.4365 C   0  0  3  0  0  0  0  0  0  0  0  0
    1.3008    1.3249   -2.5549 C   0  0  0  0  0  0  0  0  0  0  0  0
    0.1593    1.3582   -1.5612 C   0  0  0  0  0  0  0  0  0  0  0  0
   -0.0532    2.5078   -0.7856 C   0  0  0  0  0  0  0  0  0  0  0  0
   -1.1810    2.6203    0.0295 C   0  0  0  0  0  0  0  0  0  0  0  0
   -2.1083    1.5832    0.0843 C   0  0  0  0  0  0  0  0  0  0  0  0
   -1.8966    0.4244   -0.6596 C   0  0  0  0  0  0  0  0  0  0  0  0
   -0.7694    0.3109   -1.4784 C   0  0  0  0  0  0  0  0  0  0  0  0
    3.2650    0.1571   -3.6079 C   0  0  0  0  0  0  0  0  0  0  0  0
    3.2671   -0.8943   -4.5321 C   0  0  0  0  0  0  0  0  0  0  0  0
    4.1354   -0.8395   -5.6122 C   0  0  0  0  0  0  0  0  0  0  0  0
    4.9945    0.1764   -5.8343 N   0  0  0  0  0  0  0  0  0  0  0  0
    4.9916    1.1765   -4.9294 C   0  0  0  0  0  0  0  0  0  0  0  0
    4.1616    1.2120   -3.8173 C   0  0  0  0  0  0  0  0  0  0  0  0
    4.3003   -0.8896    0.6516 C   0  0  0  0  0  0  0  0  0  0  0  0
    4.4874    0.2979    1.1393 N   0  0  0  0  0  0  0  0  0  0  0  0
    5.3340    0.4206    2.2419 N   0  0  0  0  0  0  0  0  0  0  0  0
    5.5298    1.7793    2.6659 C   0  0  0  0  0  0  0  0  0  0  0  0
    6.6568    2.1869    3.3952 C   0  0  0  0  0  0  0  0  0  0  0  0
    6.8506    3.5300    3.7407 C   0  0  0  0  0  0  0  0  0  0  0  0
    5.9094    4.4891    3.3820 C   0  0  0  0  0  0  0  0  0  0  0  0
    4.7686    4.1051    2.6855 C   0  0  0  0  0  0  0  0  0  0  0  0
    4.5854    2.7654    2.3264 C   0  0  0  0  0  0  0  0  0  0  0  0
    5.9890   -0.6723    2.8299 C   0  0  0  0  0  0  0  0  0  0  0  0
    6.7556   -0.6619    3.7910 O   0  0  0  0  0  0  0  0  0  0  0  0
    5.6849   -1.9987    2.2454 C   0  0  0  0  0  0  0  0  0  0  0  0
    4.8752   -2.1293    1.1974 C   0  0  0  0  0  0  0  0  0  0  0  0
    3.3736    0.9944   -0.7754 H   0  0  0  0  0  0  0  0  0  0  0  0
    1.7161   -0.7901   -2.4854 H   0  0  0  0  0  0  0  0  0  0  0  0
    0.8445    1.3147   -3.5554 H   0  0  0  0  0  0  0  0  0  0  0  0
    1.8523    2.2722   -2.4919 H   0  0  0  0  0  0  0  0  0  0  0  0
    0.6439    3.3414   -0.8312 H   0  0  0  0  0  0  0  0  0  0  0  0
   -1.3461    3.5272    0.6056 H   0  0  0  0  0  0  0  0  0  0  0  0
   -3.0000    1.6825    0.6980 H   0  0  0  0  0  0  0  0  0  0  0  0
   -2.6228   -0.3838   -0.6188 H   0  0  0  0  0  0  0  0  0  0  0  0
   -0.6462   -0.5917   -2.0723 H   0  0  0  0  0  0  0  0  0  0  0  0
    2.6034   -1.7459   -4.4212 H   0  0  0  0  0  0  0  0  0  0  0  0
    4.1586   -1.6356   -6.3515 H   0  0  0  0  0  0  0  0  0  0  0  0
    5.6960    1.9798   -5.1287 H   0  0  0  0  0  0  0  0  0  0  0  0
    4.2187    2.0555   -3.1384 H   0  0  0  0  0  0  0  0  0  0  0  0
    7.4367    1.4869    3.6796 H   0  0  0  0  0  0  0  0  0  0  0  0
    7.7464    3.8216    4.2838 H   0  0  0  0  0  0  0  0  0  0  0  0
    6.0650    5.5314    3.6469 H   0  0  0  0  0  0  0  0  0  0  0  0
    4.0184    4.8450    2.4203 H   0  0  0  0  0  0  0  0  0  0  0  0
    3.6737    2.4949    1.8001 H   0  0  0  0  0  0  0  0  0  0  0  0
    6.1538   -2.8511    2.7216 H   0  0  0  0  0  0  0  0  0  0  0  0
    4.6314   -3.0851    0.7528 H   0  0  0  0  0  0  0  0  0  0  0  0
  1  2  2  0  0  0  0
  2  3  1  0  0  0  0
  2 18  1  0  0  0  0
  3  4  1  0  0  0  0
  3 31  1  0  0  0  0
  4  5  1  0  0  0  0
  4 12  1  0  0  0  0
  4 32  1  0  0  0  0
  5  6  1  0  0  0  0
  5 33  1  0  0  0  0
  5 34  1  0  0  0  0
  6  7  2  0  0  0  0
  6 11  1  0  0  0  0
  7  8  1  0  0  0  0
  7 35  1  0  0  0  0
  8  9  2  0  0  0  0
  8 36  1  0  0  0  0
  9 10  1  0  0  0  0
  9 37  1  0  0  0  0
 10 11  2  0  0  0  0
 10 38  1  0  0  0  0
 11 39  1  0  0  0  0
 12 13  2  0  0  0  0
 12 17  1  0  0  0  0
 13 14  1  0  0  0  0
 13 40  1  0  0  0  0
 14 15  2  0  0  0  0
 14 41  1  0  0  0  0
 15 16  1  0  0  0  0
 16 17  2  0  0  0  0
 16 42  1  0  0  0  0
 17 43  1  0  0  0  0
 18 19  2  0  0  0  0
 18 30  1  0  0  0  0
 19 20  1  0  0  0  0
 20 21  1  0  0  0  0
 20 27  1  0  0  0  0
 21 22  2  0  0  0  0
 21 26  1  0  0  0  0
 22 23  1  0  0  0  0
 22 44  1  0  0  0  0
 23 24  2  0  0  0  0
 23 45  1  0  0  0  0
 24 25  1  0  0  0  0
 24 46  1  0  0  0  0
 25 26  2  0  0  0  0
 25 47  1  0  0  0  0
 26 48  1  0  0  0  0
 27 28  2  0  0  0  0
 27 29  1  0  0  0  0
 29 30  2  0  0  0  0
 29 49  1  0  0  0  0
 30 50  1  0  0  0  0
M  END
$$$$
