
 OpenBabel01122422353D

 44 47  0  0  0  0  0  0  0  0999 V2000
    0.9150    0.2148   -0.1969 O   0  0  0  0  0  0  0  0  0  0  0  0
    2.1202    0.0306   -0.0472 C   0  0  0  0  0  0  0  0  0  0  0  0
    2.7557   -1.1814    0.1513 N   0  0  0  0  0  0  0  0  0  0  0  0
    2.1032   -2.4347    0.1672 C   0  0  0  0  0  0  0  0  0  0  0  0
    0.8141   -2.6244   -0.3152 C   0  0  0  0  0  0  0  0  0  0  0  0
    0.2051   -3.8716   -0.2115 C   0  0  0  0  0  0  0  0  0  0  0  0
    0.8946   -4.9312    0.3684 C   0  0  0  0  0  0  0  0  0  0  0  0
    0.2820   -6.2640    0.5323 C   0  0  0  0  0  0  0  0  0  0  0  0
    1.0646   -7.4252    0.5419 C   0  0  0  0  0  0  0  0  0  0  0  0
    0.4456   -8.6607    0.6477 C   0  0  0  0  0  0  0  0  0  0  0  0
   -0.8888   -8.8293    0.7523 N   0  0  0  0  0  0  0  0  0  0  0  0
   -1.6346   -7.7078    0.7673 C   0  0  0  0  0  0  0  0  0  0  0  0
   -1.1061   -6.4305    0.6700 C   0  0  0  0  0  0  0  0  0  0  0  0
    2.1762   -4.7867    0.7960 N   0  0  0  0  0  0  0  0  0  0  0  0
    2.7436   -3.5556    0.6857 C   0  0  0  0  0  0  0  0  0  0  0  0
    2.9845    1.2340   -0.0218 C   0  0  0  0  0  0  0  0  0  0  0  0
    2.4616    2.4124    0.5306 C   0  0  0  0  0  0  0  0  0  0  0  0
    3.2069    3.5916    0.5068 C   0  0  0  0  0  0  0  0  0  0  0  0
    4.4744    3.5985   -0.0854 C   0  0  0  0  0  0  0  0  0  0  0  0
    5.2378    4.8766   -0.1410 C   0  0  0  0  0  0  0  0  0  0  0  0
    5.0896    5.7013    0.7571 O   0  0  0  0  0  0  0  0  0  0  0  0
    6.1554    5.0890   -1.2587 C   0  0  0  0  0  0  0  0  0  0  0  0
    7.3182    5.8354   -1.1905 C   0  0  0  0  0  0  0  0  0  0  0  0
    7.9466    5.7828   -2.4061 N   0  0  0  0  0  0  0  0  0  0  0  0
    7.1979    5.0334   -3.2730 C   0  0  0  0  0  0  0  0  0  0  0  0
    6.0707    4.6156   -2.6040 C   0  0  0  0  0  0  0  0  0  0  0  0
    5.0085    2.4061   -0.6011 C   0  0  0  0  0  0  0  0  0  0  0  0
    4.2598    1.2290   -0.5900 C   0  0  0  0  0  0  0  0  0  0  0  0
    3.7212   -1.1650    0.4566 H   0  0  0  0  0  0  0  0  0  0  0  0
    0.2503   -1.8268   -0.7841 H   0  0  0  0  0  0  0  0  0  0  0  0
   -0.8008   -3.9889   -0.5995 H   0  0  0  0  0  0  0  0  0  0  0  0
    2.1457   -7.3689    0.4559 H   0  0  0  0  0  0  0  0  0  0  0  0
    1.0281   -9.5772    0.6452 H   0  0  0  0  0  0  0  0  0  0  0  0
   -2.7062   -7.8611    0.8592 H   0  0  0  0  0  0  0  0  0  0  0  0
   -1.7832   -5.5839    0.7089 H   0  0  0  0  0  0  0  0  0  0  0  0
    3.7591   -3.5025    1.0694 H   0  0  0  0  0  0  0  0  0  0  0  0
    1.4631    2.4137    0.9663 H   0  0  0  0  0  0  0  0  0  0  0  0
    2.7874    4.5020    0.9317 H   0  0  0  0  0  0  0  0  0  0  0  0
    7.7545    6.3819   -0.3639 H   0  0  0  0  0  0  0  0  0  0  0  0
    8.8268    6.2307   -2.6286 H   0  0  0  0  0  0  0  0  0  0  0  0
    7.5222    4.8712   -4.2923 H   0  0  0  0  0  0  0  0  0  0  0  0
    5.2759    4.0195   -3.0362 H   0  0  0  0  0  0  0  0  0  0  0  0
    6.0071    2.3831   -1.0318 H   0  0  0  0  0  0  0  0  0  0  0  0
    4.6668    0.3394   -1.0631 H   0  0  0  0  0  0  0  0  0  0  0  0
  1  2  2  0  0  0  0
  2  3  1  0  0  0  0
  2 16  1  0  0  0  0
  3  4  1  0  0  0  0
  3 29  1  0  0  0  0
  4  5  2  0  0  0  0
  4 15  1  0  0  0  0
  5  6  1  0  0  0  0
  5 30  1  0  0  0  0
  6  7  2  0  0  0  0
  6 31  1  0  0  0  0
  7  8  1  0  0  0  0
  7 14  1  0  0  0  0
  8  9  2  0  0  0  0
  8 13  1  0  0  0  0
  9 10  1  0  0  0  0
  9 32  1  0  0  0  0
 10 11  2  0  0  0  0
 10 33  1  0  0  0  0
 11 12  1  0  0  0  0
 12 13  2  0  0  0  0
 12 34  1  0  0  0  0
 13 35  1  0  0  0  0
 14 15  2  0  0  0  0
 15 36  1  0  0  0  0
 16 17  2  0  0  0  0
 16 28  1  0  0  0  0
 17 18  1  0  0  0  0
 17 37  1  0  0  0  0
 18 19  2  0  0  0  0
 18 38  1  0  0  0  0
 19 20  1  0  0  0  0
 19 27  1  0  0  0  0
 20 21  2  0  0  0  0
 20 22  1  0  0  0  0
 22 23  2  0  0  0  0
 22 26  1  0  0  0  0
 23 24  1  0  0  0  0
 23 39  1  0  0  0  0
 24 25  1  0  0  0  0
 24 40  1  0  0  0  0
 25 26  2  0  0  0  0
 25 41  1  0  0  0  0
 26 42  1  0  0  0  0
 27 28  2  0  0  0  0
 27 43  1  0  0  0  0
 28 44  1  0  0  0  0
M  END
$$$$
