
 OpenBabel01122422363D

 43 46  0  0  0  0  0  0  0  0999 V2000
    1.2972    1.1283    0.4264 O   0  0  0  0  0  0  0  0  0  0  0  0
    2.3300    0.4988    0.2061 C   0  0  0  0  0  0  0  0  0  0  0  0
    2.8312    0.2116   -1.0676 N   0  0  0  0  0  0  0  0  0  0  0  0
    2.2610    0.6301   -2.2919 C   0  0  0  0  0  0  0  0  0  0  0  0
    1.3136    1.6538   -2.3831 C   0  0  0  0  0  0  0  0  0  0  0  0
    0.7237    1.9806   -3.6084 C   0  0  0  0  0  0  0  0  0  0  0  0
    1.0563    1.2826   -4.7647 C   0  0  0  0  0  0  0  0  0  0  0  0
    0.3794    1.5900   -5.9496 N   0  0  0  0  0  0  0  0  0  0  0  0
    0.6209    0.8509   -6.9800 C   0  0  0  0  0  0  0  0  0  0  0  0
    1.5254   -0.1884   -7.0198 N   0  0  0  0  0  0  0  0  0  0  0  0
    1.6098   -0.9898   -8.1922 C   0  0  0  0  0  0  0  0  0  0  0  0
    0.4433   -1.5183   -8.7659 C   0  0  0  0  0  0  0  0  0  0  0  0
    0.5239   -2.3670   -9.8716 C   0  0  0  0  0  0  0  0  0  0  0  0
    1.7637   -2.6592  -10.4367 C   0  0  0  0  0  0  0  0  0  0  0  0
    2.9242   -2.1096   -9.8946 C   0  0  0  0  0  0  0  0  0  0  0  0
    2.8499   -1.2907   -8.7665 C   0  0  0  0  0  0  0  0  0  0  0  0
    2.3045   -0.5029   -5.9042 C   0  0  0  0  0  0  0  0  0  0  0  0
    3.1377   -1.4045   -5.8365 O   0  0  0  0  0  0  0  0  0  0  0  0
    2.0234    0.2827   -4.6826 C   0  0  0  0  0  0  0  0  0  0  0  0
    2.6472   -0.0307   -3.4623 C   0  0  0  0  0  0  0  0  0  0  0  0
    3.1779   -0.1027    1.3649 C   0  0  0  0  0  0  0  0  0  0  0  0
    2.4595   -1.0814    2.0000 F   0  0  0  0  0  0  0  0  0  0  0  0
    4.2669   -0.7644    0.8520 F   0  0  0  0  0  0  0  0  0  0  0  0
    3.5882    0.9925    2.3204 C   0  0  0  0  0  0  0  0  0  0  0  0
    2.7717    1.3939    3.3857 C   0  0  0  0  0  0  0  0  0  0  0  0
    3.1641    2.4551    4.1963 C   0  0  0  0  0  0  0  0  0  0  0  0
    4.3646    3.0839    3.9142 C   0  0  0  0  0  0  0  0  0  0  0  0
    5.1817    2.7189    2.9023 N   0  0  0  0  0  0  0  0  0  0  0  0
    4.7793    1.6836    2.1319 C   0  0  0  0  0  0  0  0  0  0  0  0
    3.5816   -0.4740   -1.1119 H   0  0  0  0  0  0  0  0  0  0  0  0
    1.0003    2.2253   -1.5144 H   0  0  0  0  0  0  0  0  0  0  0  0
   -0.0251    2.7681   -3.6518 H   0  0  0  0  0  0  0  0  0  0  0  0
    0.1011    1.0583   -7.9300 H   0  0  0  0  0  0  0  0  0  0  0  0
   -0.5313   -1.3352   -8.3192 H   0  0  0  0  0  0  0  0  0  0  0  0
   -0.3784   -2.8160  -10.2797 H   0  0  0  0  0  0  0  0  0  0  0  0
    1.8275   -3.3246  -11.2941 H   0  0  0  0  0  0  0  0  0  0  0  0
    3.8910   -2.3289  -10.3405 H   0  0  0  0  0  0  0  0  0  0  0  0
    3.7661   -0.8760   -8.3525 H   0  0  0  0  0  0  0  0  0  0  0  0
    3.3842   -0.8303   -3.4347 H   0  0  0  0  0  0  0  0  0  0  0  0
    1.8227    0.8949    3.5735 H   0  0  0  0  0  0  0  0  0  0  0  0
    2.5434    2.7906    5.0197 H   0  0  0  0  0  0  0  0  0  0  0  0
    4.7094    3.9250    4.5089 H   0  0  0  0  0  0  0  0  0  0  0  0
    5.4632    1.4281    1.3278 H   0  0  0  0  0  0  0  0  0  0  0  0
  1  2  2  0  0  0  0
  2  3  1  0  0  0  0
  2 21  1  0  0  0  0
  3  4  1  0  0  0  0
  3 30  1  0  0  0  0
  4  5  2  0  0  0  0
  4 20  1  0  0  0  0
  5  6  1  0  0  0  0
  5 31  1  0  0  0  0
  6  7  2  0  0  0  0
  6 32  1  0  0  0  0
  7  8  1  0  0  0  0
  7 19  1  0  0  0  0
  8  9  2  0  0  0  0
  9 10  1  0  0  0  0
  9 33  1  0  0  0  0
 10 11  1  0  0  0  0
 10 17  1  0  0  0  0
 11 12  2  0  0  0  0
 11 16  1  0  0  0  0
 12 13  1  0  0  0  0
 12 34  1  0  0  0  0
 13 14  2  0  0  0  0
 13 35  1  0  0  0  0
 14 15  1  0  0  0  0
 14 36  1  0  0  0  0
 15 16  2  0  0  0  0
 15 37  1  0  0  0  0
 16 38  1  0  0  0  0
 17 18  2  0  0  0  0
 17 19  1  0  0  0  0
 19 20  2  0  0  0  0
 20 39  1  0  0  0  0
 21 22  1  0  0  0  0
 21 23  1  0  0  0  0
 21 24  1  0  0  0  0
 24 25  2  0  0  0  0
 24 29  1  0  0  0  0
 25 26  1  0  0  0  0
 25 40  1  0  0  0  0
 26 27  2  0  0  0  0
 26 41  1  0  0  0  0
 27 28  1  0  0  0  0
 27 42  1  0  0  0  0
 28 29  2  0  0  0  0
 29 43  1  0  0  0  0
M  END
$$$$
