
 OpenBabel01122422363D

 41 44  0  0  0  0  0  0  0  0999 V2000
    2.1408   -5.0357    1.0616 O   0  0  0  0  0  0  0  0  0  0  0  0
    2.5478   -4.7888   -0.0703 C   0  0  0  0  0  0  0  0  0  0  0  0
    3.1907   -5.7803   -0.7601 N   0  0  0  0  0  0  0  0  0  0  0  0
    3.7685   -5.6120   -2.0114 C   0  0  0  0  0  0  0  0  0  0  0  0
    4.4838   -6.6563   -2.6000 C   0  0  0  0  0  0  0  0  0  0  0  0
    5.0678   -6.4725   -3.8564 C   0  0  0  0  0  0  0  0  0  0  0  0
    4.9318   -5.2524   -4.5205 C   0  0  0  0  0  0  0  0  0  0  0  0
    4.2211   -4.2079   -3.9250 C   0  0  0  0  0  0  0  0  0  0  0  0
    3.6431   -4.3915   -2.6635 C   0  0  0  0  0  0  0  0  0  0  0  0
    2.9329   -3.2932   -1.9743 C   0  0  0  0  0  0  0  0  0  0  0  0
    2.8275   -2.2054   -2.5376 O   0  0  0  0  0  0  0  0  0  0  0  0
    2.4546   -3.5556   -0.6932 N   0  0  0  0  0  0  0  0  0  0  0  0
    1.9639   -2.4315    0.1000 C   0  0  0  0  0  0  0  0  0  0  0  0
    0.4885   -2.1128   -0.0440 C   0  0  0  0  0  0  0  0  0  0  0  0
    0.0460   -1.2675   -1.0569 C   0  0  0  0  0  0  0  0  0  0  0  0
   -1.3019   -0.9054   -1.0983 C   0  0  0  0  0  0  0  0  0  0  0  0
   -1.8527   -0.0645   -2.0433 O   0  0  0  0  0  0  0  0  0  0  0  0
   -1.3134   -0.0475   -3.3098 C   0  0  0  0  0  0  0  0  0  0  0  0
   -0.9204   -1.2100   -3.9855 C   0  0  0  0  0  0  0  0  0  0  0  0
   -0.3200   -1.1178   -5.2414 C   0  0  0  0  0  0  0  0  0  0  0  0
   -0.1734    0.1295   -5.8374 C   0  0  0  0  0  0  0  0  0  0  0  0
    0.4119    0.2158   -7.0397 F   0  0  0  0  0  0  0  0  0  0  0  0
   -0.6317    1.2764   -5.1971 C   0  0  0  0  0  0  0  0  0  0  0  0
   -0.5186    2.4705   -5.7935 F   0  0  0  0  0  0  0  0  0  0  0  0
   -1.2064    1.1972   -3.9320 C   0  0  0  0  0  0  0  0  0  0  0  0
   -2.1589   -1.3428   -0.0976 C   0  0  0  0  0  0  0  0  0  0  0  0
   -1.6441   -2.1836    0.8700 C   0  0  0  0  0  0  0  0  0  0  0  0
   -0.3535   -2.5841    0.9093 N   0  0  0  0  0  0  0  0  0  0  0  0
    3.2697   -6.6623   -0.2664 H   0  0  0  0  0  0  0  0  0  0  0  0
    4.6083   -7.6085   -2.0909 H   0  0  0  0  0  0  0  0  0  0  0  0
    5.6339   -7.2801   -4.3163 H   0  0  0  0  0  0  0  0  0  0  0  0
    5.3873   -5.1120   -5.4986 H   0  0  0  0  0  0  0  0  0  0  0  0
    4.1309   -3.2533   -4.4387 H   0  0  0  0  0  0  0  0  0  0  0  0
    2.5405   -1.5332   -0.1591 H   0  0  0  0  0  0  0  0  0  0  0  0
    2.1728   -2.6167    1.1596 H   0  0  0  0  0  0  0  0  0  0  0  0
    0.7542   -0.8818   -1.7829 H   0  0  0  0  0  0  0  0  0  0  0  0
   -1.0488   -2.1885   -3.5285 H   0  0  0  0  0  0  0  0  0  0  0  0
    0.0402   -2.0070   -5.7478 H   0  0  0  0  0  0  0  0  0  0  0  0
   -1.5504    2.1001   -3.4402 H   0  0  0  0  0  0  0  0  0  0  0  0
   -3.1976   -1.0342   -0.0699 H   0  0  0  0  0  0  0  0  0  0  0  0
   -2.2695   -2.5603    1.6747 H   0  0  0  0  0  0  0  0  0  0  0  0
  1  2  2  0  0  0  0
  2  3  1  0  0  0  0
  2 12  1  0  0  0  0
  3  4  1  0  0  0  0
  3 29  1  0  0  0  0
  4  5  2  0  0  0  0
  4  9  1  0  0  0  0
  5  6  1  0  0  0  0
  5 30  1  0  0  0  0
  6  7  2  0  0  0  0
  6 31  1  0  0  0  0
  7  8  1  0  0  0  0
  7 32  1  0  0  0  0
  8  9  2  0  0  0  0
  8 33  1  0  0  0  0
  9 10  1  0  0  0  0
 10 11  2  0  0  0  0
 10 12  1  0  0  0  0
 12 13  1  0  0  0  0
 13 14  1  0  0  0  0
 13 34  1  0  0  0  0
 13 35  1  0  0  0  0
 14 15  2  0  0  0  0
 14 28  1  0  0  0  0
 15 16  1  0  0  0  0
 15 36  1  0  0  0  0
 16 17  1  0  0  0  0
 16 26  2  0  0  0  0
 17 18  1  0  0  0  0
 18 19  2  0  0  0  0
 18 25  1  0  0  0  0
 19 20  1  0  0  0  0
 19 37  1  0  0  0  0
 20 21  2  0  0  0  0
 20 38  1  0  0  0  0
 21 22  1  0  0  0  0
 21 23  1  0  0  0  0
 23 24  1  0  0  0  0
 23 25  2  0  0  0  0
 25 39  1  0  0  0  0
 26 27  1  0  0  0  0
 26 40  1  0  0  0  0
 27 28  2  0  0  0  0
 27 41  1  0  0  0  0
M  END
$$$$
