
 OpenBabel01122422363D

 43 46  0  0  0  0  0  0  0  0999 V2000
    0.8162    0.1400   -0.0230 O   0  0  0  0  0  0  0  0  0  0  0  0
    2.0414    0.0830    0.0748 C   0  0  0  0  0  0  0  0  0  0  0  0
    2.7196   -0.5916    1.0654 N   0  0  0  0  0  0  0  0  0  0  0  0
    2.1380   -1.4891    2.0036 C   0  0  0  0  0  0  0  0  0  0  0  0
    0.8660   -2.0430    1.7858 C   0  0  0  0  0  0  0  0  0  0  0  0
    0.2961   -2.9321    2.6978 C   0  0  0  0  0  0  0  0  0  0  0  0
    1.0037   -3.3111    3.8282 C   0  0  0  0  0  0  0  0  0  0  0  0
    2.2735   -2.7835    4.0599 C   0  0  0  0  0  0  0  0  0  0  0  0
    2.8504   -1.8542    3.1690 C   0  0  0  0  0  0  0  0  0  0  0  0
    4.1236   -1.2307    3.5143 C   0  0  0  0  0  0  0  0  0  0  0  0
    4.5717   -0.9851    4.7963 C   0  0  0  0  0  0  0  0  0  0  0  0
    5.7467   -0.3037    4.6460 N   0  0  0  0  0  0  0  0  0  0  0  0
    5.9737   -0.1682    3.3053 C   0  0  0  0  0  0  0  0  0  0  0  0
    5.0071   -0.7027    2.5919 N   0  0  0  0  0  0  0  0  0  0  0  0
    2.8835    0.8327   -0.9130 C   0  0  0  0  0  0  0  0  0  0  0  0
    2.2523    1.8180   -1.5740 C   0  0  0  0  0  0  0  0  0  0  0  0
    2.8371    2.5221   -2.6210 N   0  0  0  0  0  0  0  0  0  0  0  0
    2.0680    3.4751   -3.3664 C   0  0  0  0  0  0  0  0  0  0  0  0
    2.6063    4.7236   -3.7039 C   0  0  0  0  0  0  0  0  0  0  0  0
    1.8576    5.6417   -4.4485 C   0  0  0  0  0  0  0  0  0  0  0  0
    0.5750    5.3129   -4.8871 C   0  0  0  0  0  0  0  0  0  0  0  0
    0.0264    4.0767   -4.5567 C   0  0  0  0  0  0  0  0  0  0  0  0
    0.7624    3.1777   -3.7888 C   0  0  0  0  0  0  0  0  0  0  0  0
    0.2105    1.9831   -3.5240 F   0  0  0  0  0  0  0  0  0  0  0  0
    4.1363    2.2141   -3.0578 C   0  0  0  0  0  0  0  0  0  0  0  0
    4.7301    2.7308   -4.0027 O   0  0  0  0  0  0  0  0  0  0  0  0
    4.8210    1.1045   -2.3276 C   0  0  0  0  0  0  0  0  0  0  0  0
    4.2211    0.4630   -1.3146 C   0  0  0  0  0  0  0  0  0  0  0  0
    3.7026   -0.3777    1.2408 H   0  0  0  0  0  0  0  0  0  0  0  0
    0.2874   -1.8089    0.9001 H   0  0  0  0  0  0  0  0  0  0  0  0
   -0.7012   -3.3248    2.5127 H   0  0  0  0  0  0  0  0  0  0  0  0
    0.5626   -4.0102    4.5367 H   0  0  0  0  0  0  0  0  0  0  0  0
    2.8068   -3.1020    4.9523 H   0  0  0  0  0  0  0  0  0  0  0  0
    4.1524   -1.1916    5.7710 H   0  0  0  0  0  0  0  0  0  0  0  0
    6.3290    0.0587    5.3892 H   0  0  0  0  0  0  0  0  0  0  0  0
    6.8479    0.3380    2.9183 H   0  0  0  0  0  0  0  0  0  0  0  0
    1.2362    2.1057   -1.3109 H   0  0  0  0  0  0  0  0  0  0  0  0
    3.6038    5.0019   -3.3718 H   0  0  0  0  0  0  0  0  0  0  0  0
    2.2835    6.6114   -4.6946 H   0  0  0  0  0  0  0  0  0  0  0  0
    0.0074    6.0155   -5.4922 H   0  0  0  0  0  0  0  0  0  0  0  0
   -0.9619    3.7946   -4.9049 H   0  0  0  0  0  0  0  0  0  0  0  0
    5.8033    0.8329   -2.6942 H   0  0  0  0  0  0  0  0  0  0  0  0
    4.7215   -0.3642   -0.8221 H   0  0  0  0  0  0  0  0  0  0  0  0
  1  2  2  0  0  0  0
  2  3  1  0  0  0  0
  2 15  1  0  0  0  0
  3  4  1  0  0  0  0
  3 29  1  0  0  0  0
  4  5  2  0  0  0  0
  4  9  1  0  0  0  0
  5  6  1  0  0  0  0
  5 30  1  0  0  0  0
  6  7  2  0  0  0  0
  6 31  1  0  0  0  0
  7  8  1  0  0  0  0
  7 32  1  0  0  0  0
  8  9  2  0  0  0  0
  8 33  1  0  0  0  0
  9 10  1  0  0  0  0
 10 11  2  0  0  0  0
 10 14  1  0  0  0  0
 11 12  1  0  0  0  0
 11 34  1  0  0  0  0
 12 13  1  0  0  0  0
 12 35  1  0  0  0  0
 13 14  2  0  0  0  0
 13 36  1  0  0  0  0
 15 16  2  0  0  0  0
 15 28  1  0  0  0  0
 16 17  1  0  0  0  0
 16 37  1  0  0  0  0
 17 18  1  0  0  0  0
 17 25  1  0  0  0  0
 18 19  2  0  0  0  0
 18 23  1  0  0  0  0
 19 20  1  0  0  0  0
 19 38  1  0  0  0  0
 20 21  2  0  0  0  0
 20 39  1  0  0  0  0
 21 22  1  0  0  0  0
 21 40  1  0  0  0  0
 22 23  2  0  0  0  0
 22 41  1  0  0  0  0
 23 24  1  0  0  0  0
 25 26  2  0  0  0  0
 25 27  1  0  0  0  0
 27 28  2  0  0  0  0
 27 42  1  0  0  0  0
 28 43  1  0  0  0  0
M  END
$$$$
