
 OpenBabel01122422363D

 49 52  0  0  0  0  0  0  0  0999 V2000
   10.8158    2.1627    2.3458 C   0  0  0  0  0  0  0  0  0  0  0  0
    9.4418    1.8329    2.1142 O   0  0  0  0  0  0  0  0  0  0  0  0
    9.1061    1.5938    0.7804 C   0  0  0  0  0  0  0  0  0  0  0  0
    7.9333    1.9746    0.2660 C   0  0  0  0  0  0  0  0  0  0  0  0
    6.9139    2.7305    1.0808 C   0  0  0  0  0  0  0  0  0  0  0  0
    7.2142    3.4537    2.0420 O   0  0  0  0  0  0  0  0  0  0  0  0
    5.6115    2.6101    0.6374 N   0  0  0  0  0  0  0  0  0  0  0  0
    4.4903    3.2374    1.3130 C   0  0  0  0  0  0  0  0  0  0  0  0
    3.7669    4.1979    0.4064 C   0  0  0  0  0  0  0  0  0  0  0  0
    2.7458    3.7419   -0.4230 C   0  0  0  0  0  0  0  0  0  0  0  0
    2.0574    4.6450   -1.2378 C   0  0  0  0  0  0  0  0  0  0  0  0
    2.3221    6.0322   -1.2430 C   0  0  0  0  0  0  0  0  0  0  0  0
    1.4717    6.9267   -2.0767 C   0  0  0  0  0  0  0  0  0  0  0  0
    0.1531    6.5243   -2.3439 C   0  0  0  0  0  0  0  0  0  0  0  0
   -0.6028    7.1058   -3.3496 C   0  0  0  0  0  0  0  0  0  0  0  0
   -0.1422    8.2433   -3.9872 C   0  0  0  0  0  0  0  0  0  0  0  0
   -0.9024    8.8047   -5.0149 C   0  0  0  0  0  0  0  0  0  0  0  0
   -0.7737   10.1545   -5.2945 C   0  0  0  0  0  0  0  0  0  0  0  0
    0.2823   10.8680   -4.7379 C   0  0  0  0  0  0  0  0  0  0  0  0
    1.2464   10.2033   -3.9641 C   0  0  0  0  0  0  0  0  0  0  0  0
    1.0328    8.8759   -3.5347 C   0  0  0  0  0  0  0  0  0  0  0  0
    1.8871    8.1493   -2.6578 C   0  0  0  0  0  0  0  0  0  0  0  0
    3.3778    6.4686   -0.4350 C   0  0  0  0  0  0  0  0  0  0  0  0
    4.0946    5.5615    0.3707 C   0  0  0  0  0  0  0  0  0  0  0  0
    7.5931    1.6948   -1.0481 N   0  0  0  0  0  0  0  0  0  0  0  0
    8.4123    1.0300   -1.9084 C   0  0  0  0  0  0  0  0  0  0  0  0
    8.0722    0.8113   -3.0691 O   0  0  0  0  0  0  0  0  0  0  0  0
    9.6152    0.6416   -1.4130 N   0  0  0  0  0  0  0  0  0  0  0  0
   10.0271    0.8161   -0.1305 C   0  0  0  0  0  0  0  0  0  0  0  0
   11.1088    0.3495    0.2376 O   0  0  0  0  0  0  0  0  0  0  0  0
   10.8744    2.6489    3.3237 H   0  0  0  0  0  0  0  0  0  0  0  0
   11.1942    2.8656    1.5979 H   0  0  0  0  0  0  0  0  0  0  0  0
   11.4224    1.2656    2.3951 H   0  0  0  0  0  0  0  0  0  0  0  0
    5.3826    1.9342   -0.0760 H   0  0  0  0  0  0  0  0  0  0  0  0
    4.8119    3.7459    2.2320 H   0  0  0  0  0  0  0  0  0  0  0  0
    3.8108    2.4319    1.6174 H   0  0  0  0  0  0  0  0  0  0  0  0
    2.4546    2.6963   -0.4366 H   0  0  0  0  0  0  0  0  0  0  0  0
    1.2828    4.2271   -1.8819 H   0  0  0  0  0  0  0  0  0  0  0  0
   -0.3030    5.7102   -1.7816 H   0  0  0  0  0  0  0  0  0  0  0  0
   -1.5918    6.7103   -3.5630 H   0  0  0  0  0  0  0  0  0  0  0  0
   -1.6189    8.1976   -5.5613 H   0  0  0  0  0  0  0  0  0  0  0  0
   -1.5097   10.6408   -5.9311 H   0  0  0  0  0  0  0  0  0  0  0  0
    0.3653   11.9332   -4.9337 H   0  0  0  0  0  0  0  0  0  0  0  0
    2.1237   10.7568   -3.6379 H   0  0  0  0  0  0  0  0  0  0  0  0
    2.8726    8.5481   -2.4370 H   0  0  0  0  0  0  0  0  0  0  0  0
    3.6500    7.5217   -0.3965 H   0  0  0  0  0  0  0  0  0  0  0  0
    4.9056    5.9354    0.9971 H   0  0  0  0  0  0  0  0  0  0  0  0
    6.7510    2.0549   -1.4470 H   0  0  0  0  0  0  0  0  0  0  0  0
   10.2200    0.1216   -2.0275 H   0  0  0  0  0  0  0  0  0  0  0  0
  1  2  1  0  0  0  0
  1 31  1  0  0  0  0
  1 32  1  0  0  0  0
  1 33  1  0  0  0  0
  2  3  1  0  0  0  0
  3  4  2  0  0  0  0
  3 29  1  0  0  0  0
  4  5  1  0  0  0  0
  4 25  1  0  0  0  0
  5  6  2  0  0  0  0
  5  7  1  0  0  0  0
  7  8  1  0  0  0  0
  7 34  1  0  0  0  0
  8  9  1  0  0  0  0
  8 35  1  0  0  0  0
  8 36  1  0  0  0  0
  9 10  2  0  0  0  0
  9 24  1  0  0  0  0
 10 11  1  0  0  0  0
 10 37  1  0  0  0  0
 11 12  2  0  0  0  0
 11 38  1  0  0  0  0
 12 13  1  0  0  0  0
 12 23  1  0  0  0  0
 13 14  2  0  0  0  0
 13 22  1  0  0  0  0
 14 15  1  0  0  0  0
 14 39  1  0  0  0  0
 15 16  2  0  0  0  0
 15 40  1  0  0  0  0
 16 17  1  0  0  0  0
 16 21  1  0  0  0  0
 17 18  2  0  0  0  0
 17 41  1  0  0  0  0
 18 19  1  0  0  0  0
 18 42  1  0  0  0  0
 19 20  2  0  0  0  0
 19 43  1  0  0  0  0
 20 21  1  0  0  0  0
 20 44  1  0  0  0  0
 21 22  2  0  0  0  0
 22 45  1  0  0  0  0
 23 24  2  0  0  0  0
 23 46  1  0  0  0  0
 24 47  1  0  0  0  0
 25 26  1  0  0  0  0
 25 48  1  0  0  0  0
 26 27  2  0  0  0  0
 26 28  1  0  0  0  0
 28 29  1  0  0  0  0
 28 49  1  0  0  0  0
 29 30  2  0  0  0  0
M  END
$$$$
