
 OpenBabel01122422363D

 48 51  0  0  0  0  0  0  0  0999 V2000
    3.2033    1.2439   -0.6430 C   0  0  0  0  0  0  0  0  0  0  0  0
    2.4773    0.0038   -0.3729 N   0  0  0  0  0  0  0  0  0  0  0  0
    1.1063   -0.0177   -0.1841 C   0  0  0  0  0  0  0  0  0  0  0  0
    0.3659   -1.1031    0.0459 C   0  0  0  0  0  0  0  0  0  0  0  0
    1.0449   -2.4069    0.0924 C   0  0  0  0  0  0  0  0  0  0  0  0
    0.3940   -3.4310    0.2847 O   0  0  0  0  0  0  0  0  0  0  0  0
    2.5208   -2.4157   -0.0829 C   0  0  0  0  0  0  0  0  0  0  0  0
    3.1924   -3.6421   -0.0044 C   0  0  0  0  0  0  0  0  0  0  0  0
    4.5802   -3.6959   -0.0958 C   0  0  0  0  0  0  0  0  0  0  0  0
    5.3030   -4.9078   -0.0055 N   0  0  0  0  0  0  0  0  0  0  0  0
    4.7500   -6.1645   -0.2000 C   0  0  0  0  0  0  0  0  0  0  0  0
    3.6002   -6.4013   -0.5561 O   0  0  0  0  0  0  0  0  0  0  0  0
    5.6537   -7.3220   -0.0486 C   0  0  0  0  0  0  0  0  0  0  0  0
    6.7554   -7.3598    0.8063 C   0  0  0  0  0  0  0  0  0  0  0  0
    7.5253   -8.5254    0.8644 C   0  0  0  0  0  0  0  0  0  0  0  0
    7.1822   -9.5906    0.0422 C   0  0  0  0  0  0  0  0  0  0  0  0
    7.9726  -10.7178    0.0851 O   0  0  0  0  0  0  0  0  0  0  0  0
    7.8769  -11.4676   -1.1314 C   0  0  0  0  0  0  0  0  0  0  0  0
    8.7009  -12.7237   -0.9941 C   0  0  0  0  0  0  0  0  0  0  0  0
    8.1063  -13.9170   -0.5586 C   0  0  0  0  0  0  0  0  0  0  0  0
    8.8733  -15.0714   -0.3980 C   0  0  0  0  0  0  0  0  0  0  0  0
   10.2397  -15.0436   -0.6706 C   0  0  0  0  0  0  0  0  0  0  0  0
   10.8387  -13.8648   -1.1119 C   0  0  0  0  0  0  0  0  0  0  0  0
   10.0741  -12.7085   -1.2711 C   0  0  0  0  0  0  0  0  0  0  0  0
    6.1090   -9.5855   -0.7721 N   0  0  0  0  0  0  0  0  0  0  0  0
    5.3579   -8.4630   -0.7853 C   0  0  0  0  0  0  0  0  0  0  0  0
    5.2868   -2.5024   -0.2619 C   0  0  0  0  0  0  0  0  0  0  0  0
    4.6065   -1.2784   -0.3832 C   0  0  0  0  0  0  0  0  0  0  0  0
    3.2063   -1.2049   -0.2918 C   0  0  0  0  0  0  0  0  0  0  0  0
    2.5280    2.1065   -0.6774 H   0  0  0  0  0  0  0  0  0  0  0  0
    3.7112    1.1958   -1.6123 H   0  0  0  0  0  0  0  0  0  0  0  0
    3.9371    1.4454    0.1452 H   0  0  0  0  0  0  0  0  0  0  0  0
    0.6271    0.9588   -0.2273 H   0  0  0  0  0  0  0  0  0  0  0  0
   -0.7027   -1.0830    0.2058 H   0  0  0  0  0  0  0  0  0  0  0  0
    2.5998   -4.5365    0.1658 H   0  0  0  0  0  0  0  0  0  0  0  0
    6.3081   -4.8343    0.0615 H   0  0  0  0  0  0  0  0  0  0  0  0
    7.0053   -6.5203    1.4473 H   0  0  0  0  0  0  0  0  0  0  0  0
    8.3781   -8.5981    1.5308 H   0  0  0  0  0  0  0  0  0  0  0  0
    8.2650  -10.8673   -1.9658 H   0  0  0  0  0  0  0  0  0  0  0  0
    6.8430  -11.7556   -1.3634 H   0  0  0  0  0  0  0  0  0  0  0  0
    7.0410  -13.9502   -0.3386 H   0  0  0  0  0  0  0  0  0  0  0  0
    8.4054  -15.9899   -0.0535 H   0  0  0  0  0  0  0  0  0  0  0  0
   10.8388  -15.9398   -0.5340 H   0  0  0  0  0  0  0  0  0  0  0  0
   11.9039  -13.8438   -1.3254 H   0  0  0  0  0  0  0  0  0  0  0  0
   10.5538  -11.7929   -1.6085 H   0  0  0  0  0  0  0  0  0  0  0  0
    4.4860   -8.5095   -1.4347 H   0  0  0  0  0  0  0  0  0  0  0  0
    6.3719   -2.4994   -0.3275 H   0  0  0  0  0  0  0  0  0  0  0  0
    5.2064   -0.3871   -0.5419 H   0  0  0  0  0  0  0  0  0  0  0  0
  1  2  1  0  0  0  0
  1 30  1  0  0  0  0
  1 31  1  0  0  0  0
  1 32  1  0  0  0  0
  2  3  1  0  0  0  0
  2 29  1  0  0  0  0
  3  4  2  0  0  0  0
  3 33  1  0  0  0  0
  4  5  1  0  0  0  0
  4 34  1  0  0  0  0
  5  6  2  0  0  0  0
  5  7  1  0  0  0  0
  7  8  2  0  0  0  0
  7 29  1  0  0  0  0
  8  9  1  0  0  0  0
  8 35  1  0  0  0  0
  9 10  1  0  0  0  0
  9 27  2  0  0  0  0
 10 11  1  0  0  0  0
 10 36  1  0  0  0  0
 11 12  2  0  0  0  0
 11 13  1  0  0  0  0
 13 14  2  0  0  0  0
 13 26  1  0  0  0  0
 14 15  1  0  0  0  0
 14 37  1  0  0  0  0
 15 16  2  0  0  0  0
 15 38  1  0  0  0  0
 16 17  1  0  0  0  0
 16 25  1  0  0  0  0
 17 18  1  0  0  0  0
 18 19  1  0  0  0  0
 18 39  1  0  0  0  0
 18 40  1  0  0  0  0
 19 20  2  0  0  0  0
 19 24  1  0  0  0  0
 20 21  1  0  0  0  0
 20 41  1  0  0  0  0
 21 22  2  0  0  0  0
 21 42  1  0  0  0  0
 22 23  1  0  0  0  0
 22 43  1  0  0  0  0
 23 24  2  0  0  0  0
 23 44  1  0  0  0  0
 24 45  1  0  0  0  0
 25 26  2  0  0  0  0
 26 46  1  0  0  0  0
 27 28  1  0  0  0  0
 27 47  1  0  0  0  0
 28 29  2  0  0  0  0
 28 48  1  0  0  0  0
M  END
$$$$
