
 OpenBabel01122422363D

 50 53  0  0  1  0  0  0  0  0999 V2000
    4.0623    3.6240    1.9441 N   0  0  0  0  0  0  0  0  0  0  0  0
    3.2789    2.9492    0.8986 C   0  0  0  0  0  0  0  0  0  0  0  0
    1.7391    3.0509    1.0807 C   0  0  3  0  0  0  0  0  0  0  0  0
    1.3216    2.4617    2.3470 N   0  0  0  0  0  0  0  0  0  0  0  0
    1.0112    1.1311    2.4777 C   0  0  0  0  0  0  0  0  0  0  0  0
    1.0931    0.3366    1.5494 O   0  0  0  0  0  0  0  0  0  0  0  0
    0.5367    0.7645    3.8008 C   0  0  0  0  0  0  0  0  0  0  0  0
    0.9537    1.3233    4.9942 C   0  0  0  0  0  0  0  0  0  0  0  0
    0.2403    0.7244    6.0022 N   0  0  0  0  0  0  0  0  0  0  0  0
    0.2404    1.0679    7.3841 C   0  0  0  0  0  0  0  0  0  0  0  0
    0.9805    2.1621    7.8578 C   0  0  0  0  0  0  0  0  0  0  0  0
    0.9231    2.5169    9.2082 C   0  0  0  0  0  0  0  0  0  0  0  0
    0.1371    1.7822   10.0929 C   0  0  0  0  0  0  0  0  0  0  0  0
   -0.5908    0.6865    9.6326 C   0  0  0  0  0  0  0  0  0  0  0  0
   -0.5424    0.3281    8.2829 C   0  0  0  0  0  0  0  0  0  0  0  0
   -0.5472   -0.2656    5.5226 N   0  0  0  0  0  0  0  0  0  0  0  0
   -0.4249   -0.2171    4.1851 C   0  0  0  0  0  0  0  0  0  0  0  0
   -1.2652   -1.0774    3.3430 C   0  0  0  0  0  0  0  0  0  0  0  0
   -1.7532   -0.6365    2.1111 C   0  0  0  0  0  0  0  0  0  0  0  0
   -2.5482   -1.4903    1.3644 C   0  0  0  0  0  0  0  0  0  0  0  0
   -2.9064   -2.7268    1.7658 N   0  0  0  0  0  0  0  0  0  0  0  0
   -2.4438   -3.1268    2.9690 C   0  0  0  0  0  0  0  0  0  0  0  0
   -1.6336   -2.3515    3.7827 C   0  0  0  0  0  0  0  0  0  0  0  0
    1.2021    4.4618    0.9136 C   0  0  0  0  0  0  0  0  0  0  0  0
    0.8318    4.9166   -0.3638 C   0  0  0  0  0  0  0  0  0  0  0  0
    0.2956    6.1956   -0.5408 C   0  0  0  0  0  0  0  0  0  0  0  0
    0.1261    7.0430    0.5527 C   0  0  0  0  0  0  0  0  0  0  0  0
    0.5059    6.6163    1.8224 C   0  0  0  0  0  0  0  0  0  0  0  0
    1.0442    5.3426    1.9916 C   0  0  0  0  0  0  0  0  0  0  0  0
    1.3740    4.9549    3.2348 F   0  0  0  0  0  0  0  0  0  0  0  0
    5.0279    3.2999    1.8951 H   0  0  0  0  0  0  0  0  0  0  0  0
    3.7102    3.3426    2.8572 H   0  0  0  0  0  0  0  0  0  0  0  0
    3.5618    1.8893    0.9050 H   0  0  0  0  0  0  0  0  0  0  0  0
    3.5717    3.3569   -0.0754 H   0  0  0  0  0  0  0  0  0  0  0  0
    1.2844    2.4388    0.2900 H   0  0  0  0  0  0  0  0  0  0  0  0
    1.2366    3.0838    3.1402 H   0  0  0  0  0  0  0  0  0  0  0  0
    1.6866    2.0893    5.1902 H   0  0  0  0  0  0  0  0  0  0  0  0
    1.5963    2.7737    7.2066 H   0  0  0  0  0  0  0  0  0  0  0  0
    1.4865    3.3748    9.5677 H   0  0  0  0  0  0  0  0  0  0  0  0
    0.0885    2.0664   11.1410 H   0  0  0  0  0  0  0  0  0  0  0  0
   -1.2051    0.1138   10.3232 H   0  0  0  0  0  0  0  0  0  0  0  0
   -1.1279   -0.5255    7.9458 H   0  0  0  0  0  0  0  0  0  0  0  0
   -1.5336    0.3506    1.7218 H   0  0  0  0  0  0  0  0  0  0  0  0
   -2.9318   -1.1869    0.3945 H   0  0  0  0  0  0  0  0  0  0  0  0
   -2.7541   -4.1217    3.2747 H   0  0  0  0  0  0  0  0  0  0  0  0
   -1.3016   -2.7343    4.7420 H   0  0  0  0  0  0  0  0  0  0  0  0
    0.9477    4.2711   -1.2326 H   0  0  0  0  0  0  0  0  0  0  0  0
    0.0039    6.5282   -1.5345 H   0  0  0  0  0  0  0  0  0  0  0  0
   -0.3016    8.0328    0.4152 H   0  0  0  0  0  0  0  0  0  0  0  0
    0.3787    7.2635    2.6844 H   0  0  0  0  0  0  0  0  0  0  0  0
  1  2  1  0  0  0  0
  1 31  1  0  0  0  0
  1 32  1  0  0  0  0
  2  3  1  0  0  0  0
  2 33  1  0  0  0  0
  2 34  1  0  0  0  0
  3  4  1  0  0  0  0
  3 24  1  0  0  0  0
  3 35  1  0  0  0  0
  4  5  1  0  0  0  0
  4 36  1  0  0  0  0
  5  6  2  0  0  0  0
  5  7  1  0  0  0  0
  7  8  2  0  0  0  0
  7 17  1  0  0  0  0
  8  9  1  0  0  0  0
  8 37  1  0  0  0  0
  9 10  1  0  0  0  0
  9 16  1  0  0  0  0
 10 11  2  0  0  0  0
 10 15  1  0  0  0  0
 11 12  1  0  0  0  0
 11 38  1  0  0  0  0
 12 13  2  0  0  0  0
 12 39  1  0  0  0  0
 13 14  1  0  0  0  0
 13 40  1  0  0  0  0
 14 15  2  0  0  0  0
 14 41  1  0  0  0  0
 15 42  1  0  0  0  0
 16 17  2  0  0  0  0
 17 18  1  0  0  0  0
 18 19  2  0  0  0  0
 18 23  1  0  0  0  0
 19 20  1  0  0  0  0
 19 43  1  0  0  0  0
 20 21  2  0  0  0  0
 20 44  1  0  0  0  0
 21 22  1  0  0  0  0
 22 23  2  0  0  0  0
 22 45  1  0  0  0  0
 23 46  1  0  0  0  0
 24 25  2  0  0  0  0
 24 29  1  0  0  0  0
 25 26  1  0  0  0  0
 25 47  1  0  0  0  0
 26 27  2  0  0  0  0
 26 48  1  0  0  0  0
 27 28  1  0  0  0  0
 27 49  1  0  0  0  0
 28 29  2  0  0  0  0
 28 50  1  0  0  0  0
 29 30  1  0  0  0  0
M  END
$$$$
