
 OpenBabel01122422363D

 42 45  0  0  0  0  0  0  0  0999 V2000
    0.9530    0.4451    0.0134 O   0  0  0  0  0  0  0  0  0  0  0  0
    2.1507    0.1784    0.0155 C   0  0  0  0  0  0  0  0  0  0  0  0
    2.8203   -0.5773   -0.9345 N   0  0  0  0  0  0  0  0  0  0  0  0
    2.1687   -1.1443   -2.0181 C   0  0  0  0  0  0  0  0  0  0  0  0
    0.9147   -0.8387   -2.4868 C   0  0  0  0  0  0  0  0  0  0  0  0
    0.6324   -1.7011   -3.5169 N   0  0  0  0  0  0  0  0  0  0  0  0
   -0.5909   -1.7430   -4.2516 C   0  0  0  0  0  0  0  0  0  0  0  0
   -0.7774   -2.7534   -5.1906 C   0  0  0  0  0  0  0  0  0  0  0  0
   -1.9605   -2.7683   -5.9248 C   0  0  0  0  0  0  0  0  0  0  0  0
   -2.9143   -1.7797   -5.7105 C   0  0  0  0  0  0  0  0  0  0  0  0
   -2.6568   -0.8179   -4.7488 C   0  0  0  0  0  0  0  0  0  0  0  0
   -1.5261   -0.7812   -4.0109 N   0  0  0  0  0  0  0  0  0  0  0  0
    1.6876   -2.5286   -3.7763 N   0  0  0  0  0  0  0  0  0  0  0  0
    2.6165   -2.1579   -2.8846 C   0  0  0  0  0  0  0  0  0  0  0  0
    2.9715    0.6637    1.1602 C   0  0  0  0  0  0  0  0  0  0  0  0
    2.2921    1.2177    2.2430 C   0  0  0  0  0  0  0  0  0  0  0  0
    3.0264    1.7192    3.3068 C   0  0  0  0  0  0  0  0  0  0  0  0
    4.4176    1.7206    3.2335 C   0  0  0  0  0  0  0  0  0  0  0  0
    5.2323    2.2772    4.1937 O   0  0  0  0  0  0  0  0  0  0  0  0
    4.8187    3.4410    4.8157 C   0  0  0  0  0  0  0  0  0  0  0  0
    5.2206    3.6304    6.1435 C   0  0  0  0  0  0  0  0  0  0  0  0
    4.7928    4.7592    6.8479 C   0  0  0  0  0  0  0  0  0  0  0  0
    3.9640    5.6867    6.2206 C   0  0  0  0  0  0  0  0  0  0  0  0
    3.5207    6.7487    6.9070 F   0  0  0  0  0  0  0  0  0  0  0  0
    3.5914    5.5314    4.8922 C   0  0  0  0  0  0  0  0  0  0  0  0
    4.0481    4.4218    4.1801 C   0  0  0  0  0  0  0  0  0  0  0  0
    5.0126    1.1089    2.1310 C   0  0  0  0  0  0  0  0  0  0  0  0
    4.3264    0.5640    1.0870 N   0  0  0  0  0  0  0  0  0  0  0  0
    3.7861   -0.8123   -0.7486 H   0  0  0  0  0  0  0  0  0  0  0  0
    0.1820   -0.1079   -2.1756 H   0  0  0  0  0  0  0  0  0  0  0  0
   -0.0265   -3.5205   -5.3507 H   0  0  0  0  0  0  0  0  0  0  0  0
   -2.1308   -3.5455   -6.6649 H   0  0  0  0  0  0  0  0  0  0  0  0
   -3.8357   -1.7583   -6.2816 H   0  0  0  0  0  0  0  0  0  0  0  0
   -3.3705   -0.0244   -4.5455 H   0  0  0  0  0  0  0  0  0  0  0  0
    3.5660   -2.6753   -2.8897 H   0  0  0  0  0  0  0  0  0  0  0  0
    1.2071    1.2704    2.2516 H   0  0  0  0  0  0  0  0  0  0  0  0
    2.4965    2.1470    4.1530 H   0  0  0  0  0  0  0  0  0  0  0  0
    5.8574    2.8995    6.6352 H   0  0  0  0  0  0  0  0  0  0  0  0
    5.0830    4.9177    7.8812 H   0  0  0  0  0  0  0  0  0  0  0  0
    2.9444    6.2607    4.4192 H   0  0  0  0  0  0  0  0  0  0  0  0
    3.7653    4.3256    3.1357 H   0  0  0  0  0  0  0  0  0  0  0  0
    6.0956    1.0619    2.0466 H   0  0  0  0  0  0  0  0  0  0  0  0
  1  2  2  0  0  0  0
  2  3  1  0  0  0  0
  2 15  1  0  0  0  0
  3  4  1  0  0  0  0
  3 29  1  0  0  0  0
  4  5  2  0  0  0  0
  4 14  1  0  0  0  0
  5  6  1  0  0  0  0
  5 30  1  0  0  0  0
  6  7  1  0  0  0  0
  6 13  1  0  0  0  0
  7  8  2  0  0  0  0
  7 12  1  0  0  0  0
  8  9  1  0  0  0  0
  8 31  1  0  0  0  0
  9 10  2  0  0  0  0
  9 32  1  0  0  0  0
 10 11  1  0  0  0  0
 10 33  1  0  0  0  0
 11 12  2  0  0  0  0
 11 34  1  0  0  0  0
 13 14  2  0  0  0  0
 14 35  1  0  0  0  0
 15 16  2  0  0  0  0
 15 28  1  0  0  0  0
 16 17  1  0  0  0  0
 16 36  1  0  0  0  0
 17 18  2  0  0  0  0
 17 37  1  0  0  0  0
 18 19  1  0  0  0  0
 18 27  1  0  0  0  0
 19 20  1  0  0  0  0
 20 21  2  0  0  0  0
 20 26  1  0  0  0  0
 21 22  1  0  0  0  0
 21 38  1  0  0  0  0
 22 23  2  0  0  0  0
 22 39  1  0  0  0  0
 23 24  1  0  0  0  0
 23 25  1  0  0  0  0
 25 26  2  0  0  0  0
 25 40  1  0  0  0  0
 26 41  1  0  0  0  0
 27 28  2  0  0  0  0
 27 42  1  0  0  0  0
M  END
$$$$
