
 OpenBabel01122422363D

 40 43  0  0  0  0  0  0  0  0999 V2000
    1.0453    0.1180    0.0556 O   0  0  0  0  0  0  0  0  0  0  0  0
    2.2641    0.0086   -0.0532 C   0  0  0  0  0  0  0  0  0  0  0  0
    2.9193   -0.6657   -1.0701 N   0  0  0  0  0  0  0  0  0  0  0  0
    2.2509   -1.3019   -2.1383 C   0  0  0  0  0  0  0  0  0  0  0  0
    0.9403   -0.9733   -2.4922 C   0  0  0  0  0  0  0  0  0  0  0  0
    0.2443   -1.7048   -3.4545 C   0  0  0  0  0  0  0  0  0  0  0  0
    0.8343   -2.7869   -4.1148 C   0  0  0  0  0  0  0  0  0  0  0  0
    0.0801   -3.5564   -5.0236 N   0  0  0  0  0  0  0  0  0  0  0  0
   -1.2369   -3.4857   -5.3887 C   0  0  0  0  0  0  0  0  0  0  0  0
   -1.6044   -4.4963   -6.1839 C   0  0  0  0  0  0  0  0  0  0  0  0
   -0.3843   -5.3338   -6.2892 C   0  0  0  0  0  0  0  0  0  0  0  0
   -0.3337   -6.4217   -6.8291 O   0  0  0  0  0  0  0  0  0  0  0  0
    0.6225   -4.6660   -5.6253 N   0  0  0  0  0  0  0  0  0  0  0  0
    2.1842   -3.0469   -3.8041 C   0  0  0  0  0  0  0  0  0  0  0  0
    2.8330   -4.0589   -4.4059 F   0  0  0  0  0  0  0  0  0  0  0  0
    2.8947   -2.3120   -2.8448 C   0  0  0  0  0  0  0  0  0  0  0  0
    3.1158    0.5685    0.9759 C   0  0  0  0  0  0  0  0  0  0  0  0
    2.6349    1.1420    2.1286 C   0  0  0  0  0  0  0  0  0  0  0  0
    3.7308    1.5721    2.8208 N   0  0  0  0  0  0  0  0  0  0  0  0
    3.7619    2.2242    4.0727 C   0  0  0  0  0  0  0  0  0  0  0  0
    2.5957    2.3872    4.8317 C   0  0  0  0  0  0  0  0  0  0  0  0
    1.4077    1.9190    4.4275 F   0  0  0  0  0  0  0  0  0  0  0  0
    2.6157    3.0295    6.0690 C   0  0  0  0  0  0  0  0  0  0  0  0
    3.8110    3.5276    6.5718 C   0  0  0  0  0  0  0  0  0  0  0  0
    4.9806    3.3768    5.8294 C   0  0  0  0  0  0  0  0  0  0  0  0
    4.9549    2.7277    4.5917 C   0  0  0  0  0  0  0  0  0  0  0  0
    6.1137    2.6335    3.9261 F   0  0  0  0  0  0  0  0  0  0  0  0
    4.8433    1.2661    2.0976 N   0  0  0  0  0  0  0  0  0  0  0  0
    4.4769    0.6387    0.9808 N   0  0  0  0  0  0  0  0  0  0  0  0
    3.9080   -0.8486   -0.9306 H   0  0  0  0  0  0  0  0  0  0  0  0
    0.4111   -0.1455   -2.0311 H   0  0  0  0  0  0  0  0  0  0  0  0
   -0.7828   -1.4129   -3.6494 H   0  0  0  0  0  0  0  0  0  0  0  0
   -1.8803   -2.6893   -5.0418 H   0  0  0  0  0  0  0  0  0  0  0  0
   -2.5547   -4.7306   -6.6176 H   0  0  0  0  0  0  0  0  0  0  0  0
    1.4851   -5.0935   -5.3107 H   0  0  0  0  0  0  0  0  0  0  0  0
    3.9230   -2.5894   -2.6363 H   0  0  0  0  0  0  0  0  0  0  0  0
    1.6138    1.2673    2.4519 H   0  0  0  0  0  0  0  0  0  0  0  0
    1.6896    3.1291    6.6296 H   0  0  0  0  0  0  0  0  0  0  0  0
    3.8305    4.0289    7.5360 H   0  0  0  0  0  0  0  0  0  0  0  0
    5.9233    3.7651    6.2048 H   0  0  0  0  0  0  0  0  0  0  0  0
  1  2  2  0  0  0  0
  2  3  1  0  0  0  0
  2 17  1  0  0  0  0
  3  4  1  0  0  0  0
  3 30  1  0  0  0  0
  4  5  2  0  0  0  0
  4 16  1  0  0  0  0
  5  6  1  0  0  0  0
  5 31  1  0  0  0  0
  6  7  2  0  0  0  0
  6 32  1  0  0  0  0
  7  8  1  0  0  0  0
  7 14  1  0  0  0  0
  8  9  1  0  0  0  0
  8 13  1  0  0  0  0
  9 10  2  0  0  0  0
  9 33  1  0  0  0  0
 10 11  1  0  0  0  0
 10 34  1  0  0  0  0
 11 12  2  0  0  0  0
 11 13  1  0  0  0  0
 13 35  1  0  0  0  0
 14 15  1  0  0  0  0
 14 16  2  0  0  0  0
 16 36  1  0  0  0  0
 17 18  2  0  0  0  0
 17 29  1  0  0  0  0
 18 19  1  0  0  0  0
 18 37  1  0  0  0  0
 19 20  1  0  0  0  0
 19 28  1  0  0  0  0
 20 21  2  0  0  0  0
 20 26  1  0  0  0  0
 21 22  1  0  0  0  0
 21 23  1  0  0  0  0
 23 24  2  0  0  0  0
 23 38  1  0  0  0  0
 24 25  1  0  0  0  0
 24 39  1  0  0  0  0
 25 26  2  0  0  0  0
 25 40  1  0  0  0  0
 26 27  1  0  0  0  0
 28 29  2  0  0  0  0
M  END
$$$$
