
 OpenBabel01122422353D

 43 46  0  0  0  0  0  0  0  0999 V2000
    0.9351    0.0650   -0.0395 N   0  0  0  0  0  0  0  0  0  0  0  0
    2.1961    0.0650   -0.0395 C   0  0  0  0  0  0  0  0  0  0  0  0
    3.7161    0.0650   -0.0395 C   0  0  0  0  0  0  0  0  0  0  0  0
    4.4000    1.2257    0.1420 C   0  0  0  0  0  0  0  0  0  0  0  0
    3.7664    2.4774    0.2730 N   0  0  0  0  0  0  0  0  0  0  0  0
    4.3756    3.7217    0.4652 C   0  0  0  0  0  0  0  0  0  0  0  0
    5.5874    3.8860    0.5792 O   0  0  0  0  0  0  0  0  0  0  0  0
    3.5451    4.9624    0.5342 C   0  0  0  0  0  0  0  0  0  0  0  0
    4.2353    6.1530    0.7905 C   0  0  0  0  0  0  0  0  0  0  0  0
    3.6746    7.3859    0.8193 N   0  0  0  0  0  0  0  0  0  0  0  0
    2.3492    7.4432    0.5757 C   0  0  0  0  0  0  0  0  0  0  0  0
    1.5443    6.3286    0.3324 C   0  0  0  0  0  0  0  0  0  0  0  0
    0.1210    6.4828    0.0662 C   0  0  0  0  0  0  0  0  0  0  0  0
   -0.6434    7.5562    0.4854 C   0  0  0  0  0  0  0  0  0  0  0  0
   -1.9280    7.4316    0.0666 O   0  0  0  0  0  0  0  0  0  0  0  0
   -2.0027    6.2682   -0.6294 C   0  0  0  0  0  0  0  0  0  0  0  0
   -0.7757    5.6476   -0.6572 C   0  0  0  0  0  0  0  0  0  0  0  0
    2.1662    5.0641    0.3164 C   0  0  0  0  0  0  0  0  0  0  0  0
    5.8456    1.1267    0.2302 C   0  0  0  0  0  0  0  0  0  0  0  0
    6.4728   -0.0492    0.1767 C   0  0  0  0  0  0  0  0  0  0  0  0
    5.7869   -1.2424    0.0452 N   0  0  0  0  0  0  0  0  0  0  0  0
    6.4974   -2.4741   -0.0256 C   0  0  0  0  0  0  0  0  0  0  0  0
    7.5954   -2.5984   -0.8868 C   0  0  0  0  0  0  0  0  0  0  0  0
    8.2348   -3.8286   -1.0317 C   0  0  0  0  0  0  0  0  0  0  0  0
    7.8128   -4.9266   -0.2829 C   0  0  0  0  0  0  0  0  0  0  0  0
    6.7540   -4.7964    0.6139 C   0  0  0  0  0  0  0  0  0  0  0  0
    6.0914   -3.5761    0.7354 C   0  0  0  0  0  0  0  0  0  0  0  0
    4.3925   -1.2621   -0.0759 C   0  0  0  0  0  0  0  0  0  0  0  0
    3.7002   -2.2675   -0.2259 O   0  0  0  0  0  0  0  0  0  0  0  0
    2.7523    2.4788    0.2440 H   0  0  0  0  0  0  0  0  0  0  0  0
    5.3067    6.1613    0.9799 H   0  0  0  0  0  0  0  0  0  0  0  0
    1.9534    8.4566    0.5655 H   0  0  0  0  0  0  0  0  0  0  0  0
   -0.4429    8.4509    1.0608 H   0  0  0  0  0  0  0  0  0  0  0  0
   -2.9748    6.0309   -1.0380 H   0  0  0  0  0  0  0  0  0  0  0  0
   -0.5609    4.7145   -1.1569 H   0  0  0  0  0  0  0  0  0  0  0  0
    1.5619    4.1841    0.1271 H   0  0  0  0  0  0  0  0  0  0  0  0
    6.4720    1.9971    0.3703 H   0  0  0  0  0  0  0  0  0  0  0  0
    7.5550   -0.0982    0.2930 H   0  0  0  0  0  0  0  0  0  0  0  0
    7.9146   -1.7633   -1.5050 H   0  0  0  0  0  0  0  0  0  0  0  0
    9.0468   -3.9353   -1.7457 H   0  0  0  0  0  0  0  0  0  0  0  0
    8.3024   -5.8881   -0.4061 H   0  0  0  0  0  0  0  0  0  0  0  0
    6.4306   -5.6473    1.2076 H   0  0  0  0  0  0  0  0  0  0  0  0
    5.2654   -3.4910    1.4381 H   0  0  0  0  0  0  0  0  0  0  0  0
  1  2  3  0  0  0  0
  2  3  1  0  0  0  0
  3  4  2  0  0  0  0
  3 28  1  0  0  0  0
  4  5  1  0  0  0  0
  4 19  1  0  0  0  0
  5  6  1  0  0  0  0
  5 30  1  0  0  0  0
  6  7  2  0  0  0  0
  6  8  1  0  0  0  0
  8  9  2  0  0  0  0
  8 18  1  0  0  0  0
  9 10  1  0  0  0  0
  9 31  1  0  0  0  0
 10 11  2  0  0  0  0
 11 12  1  0  0  0  0
 11 32  1  0  0  0  0
 12 13  1  0  0  0  0
 12 18  2  0  0  0  0
 13 14  2  0  0  0  0
 13 17  1  0  0  0  0
 14 15  1  0  0  0  0
 14 33  1  0  0  0  0
 15 16  1  0  0  0  0
 16 17  2  0  0  0  0
 16 34  1  0  0  0  0
 17 35  1  0  0  0  0
 18 36  1  0  0  0  0
 19 20  2  0  0  0  0
 19 37  1  0  0  0  0
 20 21  1  0  0  0  0
 20 38  1  0  0  0  0
 21 22  1  0  0  0  0
 21 28  1  0  0  0  0
 22 23  2  0  0  0  0
 22 27  1  0  0  0  0
 23 24  1  0  0  0  0
 23 39  1  0  0  0  0
 24 25  2  0  0  0  0
 24 40  1  0  0  0  0
 25 26  1  0  0  0  0
 25 41  1  0  0  0  0
 26 27  2  0  0  0  0
 26 42  1  0  0  0  0
 27 43  1  0  0  0  0
 28 29  2  0  0  0  0
M  END
$$$$
