
 OpenBabel01122422363D

 41 44  0  0  0  0  0  0  0  0999 V2000
    1.1330   -0.6862    0.1376 O   0  0  0  0  0  0  0  0  0  0  0  0
    2.2742   -0.2570    0.0197 C   0  0  0  0  0  0  0  0  0  0  0  0
    2.8604    0.6755    0.8565 N   0  0  0  0  0  0  0  0  0  0  0  0
    2.2495    1.2866    1.9708 C   0  0  0  0  0  0  0  0  0  0  0  0
    1.0770    0.8352    2.5750 C   0  0  0  0  0  0  0  0  0  0  0  0
    0.5471    1.5231    3.6668 C   0  0  0  0  0  0  0  0  0  0  0  0
    1.2225    2.6396    4.1268 C   0  0  0  0  0  0  0  0  0  0  0  0
    0.7035    3.2748    5.2471 O   0  0  0  0  0  0  0  0  0  0  0  0
    1.6107    3.8691    6.0963 C   0  0  0  0  0  0  0  0  0  0  0  0
    1.2365    5.0786    6.6813 C   0  0  0  0  0  0  0  0  0  0  0  0
    2.1221    5.7341    7.5363 C   0  0  0  0  0  0  0  0  0  0  0  0
    3.3743    5.1796    7.8163 C   0  0  0  0  0  0  0  0  0  0  0  0
    3.7321    3.9538    7.2598 C   0  0  0  0  0  0  0  0  0  0  0  0
    2.8429    3.2882    6.4207 C   0  0  0  0  0  0  0  0  0  0  0  0
    2.3504    3.1198    3.5544 N   0  0  0  0  0  0  0  0  0  0  0  0
    2.8446    2.4229    2.5104 C   0  0  0  0  0  0  0  0  0  0  0  0
    3.0868   -0.7133   -1.1356 C   0  0  0  0  0  0  0  0  0  0  0  0
    4.1621    0.0224   -1.6356 C   0  0  0  0  0  0  0  0  0  0  0  0
    4.5484    1.1651   -1.0449 F   0  0  0  0  0  0  0  0  0  0  0  0
    4.8652   -0.3951   -2.7661 C   0  0  0  0  0  0  0  0  0  0  0  0
    4.4998   -1.5742   -3.4279 C   0  0  0  0  0  0  0  0  0  0  0  0
    5.2019   -2.0090   -4.6238 C   0  0  0  0  0  0  0  0  0  0  0  0
    6.2296   -1.3513   -5.1872 N   0  0  0  0  0  0  0  0  0  0  0  0
    6.4749   -2.1519   -6.2366 N   0  0  0  0  0  0  0  0  0  0  0  0
    5.6903   -3.2289   -6.3480 N   0  0  0  0  0  0  0  0  0  0  0  0
    4.8648   -3.1487   -5.3156 N   0  0  0  0  0  0  0  0  0  0  0  0
    3.4359   -2.3275   -2.9214 C   0  0  0  0  0  0  0  0  0  0  0  0
    2.7432   -1.8971   -1.7901 C   0  0  0  0  0  0  0  0  0  0  0  0
    1.7479   -2.6780   -1.3472 F   0  0  0  0  0  0  0  0  0  0  0  0
    3.7621    1.0532    0.5825 H   0  0  0  0  0  0  0  0  0  0  0  0
    0.5644   -0.0595    2.2362 H   0  0  0  0  0  0  0  0  0  0  0  0
   -0.3565    1.1771    4.1553 H   0  0  0  0  0  0  0  0  0  0  0  0
    0.2702    5.5180    6.4570 H   0  0  0  0  0  0  0  0  0  0  0  0
    1.8426    6.6854    7.9835 H   0  0  0  0  0  0  0  0  0  0  0  0
    4.0707    5.7022    8.4656 H   0  0  0  0  0  0  0  0  0  0  0  0
    4.7051    3.5182    7.4667 H   0  0  0  0  0  0  0  0  0  0  0  0
    3.1329    2.3323    5.9929 H   0  0  0  0  0  0  0  0  0  0  0  0
    3.7620    2.8348    2.1003 H   0  0  0  0  0  0  0  0  0  0  0  0
    5.6901    0.2159   -3.1284 H   0  0  0  0  0  0  0  0  0  0  0  0
    7.2099   -1.9564   -6.9094 H   0  0  0  0  0  0  0  0  0  0  0  0
    3.1213   -3.2545   -3.3967 H   0  0  0  0  0  0  0  0  0  0  0  0
  1  2  2  0  0  0  0
  2  3  1  0  0  0  0
  2 17  1  0  0  0  0
  3  4  1  0  0  0  0
  3 30  1  0  0  0  0
  4  5  2  0  0  0  0
  4 16  1  0  0  0  0
  5  6  1  0  0  0  0
  5 31  1  0  0  0  0
  6  7  2  0  0  0  0
  6 32  1  0  0  0  0
  7  8  1  0  0  0  0
  7 15  1  0  0  0  0
  8  9  1  0  0  0  0
  9 10  2  0  0  0  0
  9 14  1  0  0  0  0
 10 11  1  0  0  0  0
 10 33  1  0  0  0  0
 11 12  2  0  0  0  0
 11 34  1  0  0  0  0
 12 13  1  0  0  0  0
 12 35  1  0  0  0  0
 13 14  2  0  0  0  0
 13 36  1  0  0  0  0
 14 37  1  0  0  0  0
 15 16  2  0  0  0  0
 16 38  1  0  0  0  0
 17 18  2  0  0  0  0
 17 28  1  0  0  0  0
 18 19  1  0  0  0  0
 18 20  1  0  0  0  0
 20 21  2  0  0  0  0
 20 39  1  0  0  0  0
 21 22  1  0  0  0  0
 21 27  1  0  0  0  0
 22 23  2  0  0  0  0
 22 26  1  0  0  0  0
 23 24  1  0  0  0  0
 24 25  1  0  0  0  0
 24 40  1  0  0  0  0
 25 26  2  0  0  0  0
 27 28  2  0  0  0  0
 27 41  1  0  0  0  0
 28 29  1  0  0  0  0
M  END
$$$$
