
 OpenBabel01122422363D

 48 51  0  0  0  0  0  0  0  0999 V2000
    5.1835   -5.2307    1.5399 C   0  0  0  0  0  0  0  0  0  0  0  0
    5.5105   -3.8758    1.8398 O   0  0  0  0  0  0  0  0  0  0  0  0
    4.5056   -2.9616    1.6778 C   0  0  0  0  0  0  0  0  0  0  0  0
    3.2187   -3.2380    1.1913 C   0  0  0  0  0  0  0  0  0  0  0  0
    2.2547   -2.2403    1.0627 C   0  0  0  0  0  0  0  0  0  0  0  0
    2.5404   -0.9215    1.4166 C   0  0  0  0  0  0  0  0  0  0  0  0
    3.8217   -0.6080    1.8988 C   0  0  0  0  0  0  0  0  0  0  0  0
    4.7670   -1.6226    2.0174 C   0  0  0  0  0  0  0  0  0  0  0  0
    5.9131   -1.0322    2.5020 N   0  0  0  0  0  0  0  0  0  0  0  0
    5.7405    0.3273    2.6900 C   0  0  0  0  0  0  0  0  0  0  0  0
    6.8191    1.1733    3.1655 C   0  0  0  0  0  0  0  0  0  0  0  0
    7.9317    0.7007    3.3729 O   0  0  0  0  0  0  0  0  0  0  0  0
    6.4702    2.4973    3.3803 N   0  0  0  0  0  0  0  0  0  0  0  0
    7.3307    3.5311    3.8115 C   0  0  0  0  0  0  0  0  0  0  0  0
    8.7168    3.4372    3.8147 C   0  0  0  0  0  0  0  0  0  0  0  0
    9.4887    4.4882    4.3171 C   0  0  0  0  0  0  0  0  0  0  0  0
    8.8578    5.6289    4.7987 C   0  0  0  0  0  0  0  0  0  0  0  0
    9.6709    6.6244    5.3627 N   0  0  0  0  0  0  0  0  0  0  0  0
    9.2138    7.8242    5.8689 C   0  0  0  0  0  0  0  0  0  0  0  0
    8.0759    8.2734    5.7962 O   0  0  0  0  0  0  0  0  0  0  0  0
   10.2401    8.6686    6.5500 C   0  0  0  0  0  0  0  0  0  0  0  0
   10.0652   10.0601    6.5248 C   0  0  0  0  0  0  0  0  0  0  0  0
   10.9578   10.8785    7.2082 C   0  0  0  0  0  0  0  0  0  0  0  0
   10.8087   12.2337    7.2237 O   0  0  0  0  0  0  0  0  0  0  0  0
   12.0254   10.3358    7.9133 C   0  0  0  0  0  0  0  0  0  0  0  0
   12.2042    8.9527    7.9435 C   0  0  0  0  0  0  0  0  0  0  0  0
   11.3115    8.1156    7.2677 C   0  0  0  0  0  0  0  0  0  0  0  0
    7.5216    5.7605    4.7605 N   0  0  0  0  0  0  0  0  0  0  0  0
    6.7925    4.7299    4.2673 C   0  0  0  0  0  0  0  0  0  0  0  0
    4.4353    0.6003    2.3237 C   0  0  0  0  0  0  0  0  0  0  0  0
    6.0624   -5.8490    1.7459 H   0  0  0  0  0  0  0  0  0  0  0  0
    4.9357   -5.3506    0.4794 H   0  0  0  0  0  0  0  0  0  0  0  0
    4.3684   -5.5920    2.1771 H   0  0  0  0  0  0  0  0  0  0  0  0
    2.9359   -4.2442    0.8967 H   0  0  0  0  0  0  0  0  0  0  0  0
    1.2681   -2.4907    0.6817 H   0  0  0  0  0  0  0  0  0  0  0  0
    1.7855   -0.1484    1.3117 H   0  0  0  0  0  0  0  0  0  0  0  0
    6.7788   -1.5242    2.6830 H   0  0  0  0  0  0  0  0  0  0  0  0
    5.4876    2.7252    3.3258 H   0  0  0  0  0  0  0  0  0  0  0  0
    9.2313    2.5635    3.4285 H   0  0  0  0  0  0  0  0  0  0  0  0
   10.5679    4.3857    4.3310 H   0  0  0  0  0  0  0  0  0  0  0  0
   10.6620    6.4419    5.3755 H   0  0  0  0  0  0  0  0  0  0  0  0
    9.2242   10.4831    5.9812 H   0  0  0  0  0  0  0  0  0  0  0  0
    9.9775   12.4601    6.7727 H   0  0  0  0  0  0  0  0  0  0  0  0
   12.7042   10.9897    8.4547 H   0  0  0  0  0  0  0  0  0  0  0  0
   13.0257    8.5291    8.5164 H   0  0  0  0  0  0  0  0  0  0  0  0
   11.4428    7.0410    7.3511 H   0  0  0  0  0  0  0  0  0  0  0  0
    5.7210    4.9085    4.2831 H   0  0  0  0  0  0  0  0  0  0  0  0
    3.9516    1.5672    2.3340 H   0  0  0  0  0  0  0  0  0  0  0  0
  1  2  1  0  0  0  0
  1 31  1  0  0  0  0
  1 32  1  0  0  0  0
  1 33  1  0  0  0  0
  2  3  1  0  0  0  0
  3  4  2  0  0  0  0
  3  8  1  0  0  0  0
  4  5  1  0  0  0  0
  4 34  1  0  0  0  0
  5  6  2  0  0  0  0
  5 35  1  0  0  0  0
  6  7  1  0  0  0  0
  6 36  1  0  0  0  0
  7  8  2  0  0  0  0
  7 30  1  0  0  0  0
  8  9  1  0  0  0  0
  9 10  1  0  0  0  0
  9 37  1  0  0  0  0
 10 11  1  0  0  0  0
 10 30  2  0  0  0  0
 11 12  2  0  0  0  0
 11 13  1  0  0  0  0
 13 14  1  0  0  0  0
 13 38  1  0  0  0  0
 14 15  2  0  0  0  0
 14 29  1  0  0  0  0
 15 16  1  0  0  0  0
 15 39  1  0  0  0  0
 16 17  2  0  0  0  0
 16 40  1  0  0  0  0
 17 18  1  0  0  0  0
 17 28  1  0  0  0  0
 18 19  1  0  0  0  0
 18 41  1  0  0  0  0
 19 20  2  0  0  0  0
 19 21  1  0  0  0  0
 21 22  2  0  0  0  0
 21 27  1  0  0  0  0
 22 23  1  0  0  0  0
 22 42  1  0  0  0  0
 23 24  1  0  0  0  0
 23 25  2  0  0  0  0
 24 43  1  0  0  0  0
 25 26  1  0  0  0  0
 25 44  1  0  0  0  0
 26 27  2  0  0  0  0
 26 45  1  0  0  0  0
 27 46  1  0  0  0  0
 28 29  2  0  0  0  0
 29 47  1  0  0  0  0
 30 48  1  0  0  0  0
M  END
$$$$
