
 OpenBabel01122422363D

 53 56  0  0  0  0  0  0  0  0999 V2000
    0.2682    0.0978   -0.8771 O   0  0  0  0  0  0  0  0  0  0  0  0
    0.3064    0.3891   -2.0669 C   0  0  0  0  0  0  0  0  0  0  0  0
    1.2667    1.1900   -2.6322 N   0  0  0  0  0  0  0  0  0  0  0  0
    2.3548    1.6815   -1.8173 C   0  0  0  0  0  0  0  0  0  0  0  0
    3.3113    2.5488   -2.5997 C   0  0  0  0  0  0  0  0  0  0  0  0
    3.0899    3.9278   -2.7173 C   0  0  0  0  0  0  0  0  0  0  0  0
    3.9877    4.7373   -3.4187 C   0  0  0  0  0  0  0  0  0  0  0  0
    5.1284    4.1829   -4.0030 C   0  0  0  0  0  0  0  0  0  0  0  0
    5.3738    2.8094   -3.8921 C   0  0  0  0  0  0  0  0  0  0  0  0
    6.6101    2.1765   -4.4330 C   0  0  0  0  0  0  0  0  0  0  0  0
    6.8158    0.9728   -4.3714 O   0  0  0  0  0  0  0  0  0  0  0  0
    7.4566    3.1076   -4.9334 O   0  0  0  0  0  0  0  0  0  0  0  0
    8.7367    2.6274   -5.3673 C   0  0  0  0  0  0  0  0  0  0  0  0
    8.9343    2.9478   -6.8267 C   0  0  0  0  0  0  0  0  0  0  0  0
    9.5129    4.1592   -7.2321 C   0  0  0  0  0  0  0  0  0  0  0  0
    9.7121    4.4284   -8.5883 C   0  0  0  0  0  0  0  0  0  0  0  0
    9.3292    3.4952   -9.5505 C   0  0  0  0  0  0  0  0  0  0  0  0
    8.7393    2.2951   -9.1587 C   0  0  0  0  0  0  0  0  0  0  0  0
    8.5369    2.0251   -7.8045 C   0  0  0  0  0  0  0  0  0  0  0  0
    4.4498    1.9958   -3.2106 C   0  0  0  0  0  0  0  0  0  0  0  0
   -0.6024   -0.0569   -2.9882 N   0  0  0  0  0  0  0  0  0  0  0  0
   -1.7531   -0.8608   -2.6170 C   0  0  0  0  0  0  0  0  0  0  0  0
   -2.9727   -0.0479   -2.2074 C   0  0  0  0  0  0  0  0  0  0  0  0
   -3.1724    0.2385   -0.8522 C   0  0  0  0  0  0  0  0  0  0  0  0
   -4.3134    0.9372   -0.4445 C   0  0  0  0  0  0  0  0  0  0  0  0
   -5.2203    1.3271   -1.4358 C   0  0  0  0  0  0  0  0  0  0  0  0
   -6.4650    2.0167   -1.4637 C   0  0  0  0  0  0  0  0  0  0  0  0
   -6.8731    2.0857   -2.7795 C   0  0  0  0  0  0  0  0  0  0  0  0
   -5.9199    1.4662   -3.5463 N   0  0  0  0  0  0  0  0  0  0  0  0
   -4.9073    0.9959   -2.7513 C   0  0  0  0  0  0  0  0  0  0  0  0
   -3.8245    0.3324   -3.1989 N   0  0  0  0  0  0  0  0  0  0  0  0
    1.4518    1.0463   -3.6131 H   0  0  0  0  0  0  0  0  0  0  0  0
    2.8860    0.8262   -1.3820 H   0  0  0  0  0  0  0  0  0  0  0  0
    1.9319    2.2457   -0.9769 H   0  0  0  0  0  0  0  0  0  0  0  0
    2.2197    4.3834   -2.2476 H   0  0  0  0  0  0  0  0  0  0  0  0
    3.8060    5.8072   -3.4970 H   0  0  0  0  0  0  0  0  0  0  0  0
    5.8202    4.8347   -4.5312 H   0  0  0  0  0  0  0  0  0  0  0  0
    8.8804    1.5531   -5.2017 H   0  0  0  0  0  0  0  0  0  0  0  0
    9.5030    3.1330   -4.7678 H   0  0  0  0  0  0  0  0  0  0  0  0
    9.8215    4.8964   -6.4943 H   0  0  0  0  0  0  0  0  0  0  0  0
   10.1709    5.3649   -8.8957 H   0  0  0  0  0  0  0  0  0  0  0  0
    9.4896    3.7027  -10.6051 H   0  0  0  0  0  0  0  0  0  0  0  0
    8.4405    1.5657   -9.9070 H   0  0  0  0  0  0  0  0  0  0  0  0
    8.0770    1.0831   -7.5111 H   0  0  0  0  0  0  0  0  0  0  0  0
    4.6364    0.9249   -3.1319 H   0  0  0  0  0  0  0  0  0  0  0  0
   -0.6636    0.4409   -3.8627 H   0  0  0  0  0  0  0  0  0  0  0  0
   -1.4775   -1.5584   -1.8171 H   0  0  0  0  0  0  0  0  0  0  0  0
   -2.0119   -1.4630   -3.4949 H   0  0  0  0  0  0  0  0  0  0  0  0
   -2.4472   -0.0852   -0.1111 H   0  0  0  0  0  0  0  0  0  0  0  0
   -4.4893    1.1573    0.6035 H   0  0  0  0  0  0  0  0  0  0  0  0
   -7.0041    2.4151   -0.6129 H   0  0  0  0  0  0  0  0  0  0  0  0
   -7.7551    2.5195   -3.2347 H   0  0  0  0  0  0  0  0  0  0  0  0
   -5.9384    1.3522   -4.5493 H   0  0  0  0  0  0  0  0  0  0  0  0
  1  2  2  0  0  0  0
  2  3  1  0  0  0  0
  2 21  1  0  0  0  0
  3  4  1  0  0  0  0
  3 32  1  0  0  0  0
  4  5  1  0  0  0  0
  4 33  1  0  0  0  0
  4 34  1  0  0  0  0
  5  6  2  0  0  0  0
  5 20  1  0  0  0  0
  6  7  1  0  0  0  0
  6 35  1  0  0  0  0
  7  8  2  0  0  0  0
  7 36  1  0  0  0  0
  8  9  1  0  0  0  0
  8 37  1  0  0  0  0
  9 10  1  0  0  0  0
  9 20  2  0  0  0  0
 10 11  2  0  0  0  0
 10 12  1  0  0  0  0
 12 13  1  0  0  0  0
 13 14  1  0  0  0  0
 13 38  1  0  0  0  0
 13 39  1  0  0  0  0
 14 15  2  0  0  0  0
 14 19  1  0  0  0  0
 15 16  1  0  0  0  0
 15 40  1  0  0  0  0
 16 17  2  0  0  0  0
 16 41  1  0  0  0  0
 17 18  1  0  0  0  0
 17 42  1  0  0  0  0
 18 19  2  0  0  0  0
 18 43  1  0  0  0  0
 19 44  1  0  0  0  0
 20 45  1  0  0  0  0
 21 22  1  0  0  0  0
 21 46  1  0  0  0  0
 22 23  1  0  0  0  0
 22 47  1  0  0  0  0
 22 48  1  0  0  0  0
 23 24  2  0  0  0  0
 23 31  1  0  0  0  0
 24 25  1  0  0  0  0
 24 49  1  0  0  0  0
 25 26  2  0  0  0  0
 25 50  1  0  0  0  0
 26 27  1  0  0  0  0
 26 30  1  0  0  0  0
 27 28  2  0  0  0  0
 27 51  1  0  0  0  0
 28 29  1  0  0  0  0
 28 52  1  0  0  0  0
 29 30  1  0  0  0  0
 29 53  1  0  0  0  0
 30 31  2  0  0  0  0
M  END
$$$$
