
 OpenBabel01122422363D

 54 56  0  0  0  0  0  0  0  0999 V2000
    5.4318   -2.2344   -5.1086 C   0  0  0  0  0  0  0  0  0  0  0  0
    4.4279   -2.3784   -3.9825 C   0  0  0  0  0  0  0  0  0  0  0  0
    5.0368   -2.6315   -2.6929 N   0  0  0  0  0  0  0  0  0  0  0  0
    4.2363   -2.7755   -1.5813 C   0  0  0  0  0  0  0  0  0  0  0  0
    3.0087   -2.6928   -1.6580 O   0  0  0  0  0  0  0  0  0  0  0  0
    4.8889   -3.0450   -0.2361 C   0  0  0  0  0  0  0  0  0  0  0  0
    6.3932   -3.0527   -0.1785 C   0  0  0  0  0  0  0  0  0  0  0  0
    7.0597   -1.8461    0.0354 C   0  0  0  0  0  0  0  0  0  0  0  0
    8.4465   -1.8034    0.0785 C   0  0  0  0  0  0  0  0  0  0  0  0
    9.2002   -2.9568   -0.1184 C   0  0  0  0  0  0  0  0  0  0  0  0
   10.6033   -2.9400   -0.1539 N   0  0  0  0  0  0  0  0  0  0  0  0
   11.4168   -1.8451   -0.0574 C   0  0  0  0  0  0  0  0  0  0  0  0
   11.0825   -0.6614    0.0427 O   0  0  0  0  0  0  0  0  0  0  0  0
   12.7521   -2.0969   -0.0663 N   0  0  0  0  0  0  0  0  0  0  0  0
   13.3974   -3.3742   -0.2197 C   0  0  0  0  0  0  0  0  0  0  0  0
   13.5002   -3.7639   -1.6739 C   0  0  0  0  0  0  0  0  0  0  0  0
   14.3381   -3.0321   -2.5069 C   0  0  0  0  0  0  0  0  0  0  0  0
   14.4257   -3.3835   -3.8483 C   0  0  0  0  0  0  0  0  0  0  0  0
   15.2383   -2.7432   -4.7559 O   0  0  0  0  0  0  0  0  0  0  0  0
   15.4610   -1.3892   -4.6288 C   0  0  0  0  0  0  0  0  0  0  0  0
   14.4833   -0.4754   -4.2094 C   0  0  0  0  0  0  0  0  0  0  0  0
   14.7899    0.8829   -4.1094 C   0  0  0  0  0  0  0  0  0  0  0  0
   16.0577    1.3256   -4.4698 C   0  0  0  0  0  0  0  0  0  0  0  0
   16.3439    2.6320   -4.3838 F   0  0  0  0  0  0  0  0  0  0  0  0
   17.0148    0.4262   -4.9241 C   0  0  0  0  0  0  0  0  0  0  0  0
   18.2315    0.8612   -5.2796 F   0  0  0  0  0  0  0  0  0  0  0  0
   16.7247   -0.9322   -5.0085 C   0  0  0  0  0  0  0  0  0  0  0  0
   13.7183   -4.4861   -4.3094 C   0  0  0  0  0  0  0  0  0  0  0  0
   12.8889   -5.1476   -3.4190 C   0  0  0  0  0  0  0  0  0  0  0  0
   12.7465   -4.8014   -2.1177 N   0  0  0  0  0  0  0  0  0  0  0  0
    8.5390   -4.1768   -0.3093 C   0  0  0  0  0  0  0  0  0  0  0  0
    7.1389   -4.2278   -0.3371 C   0  0  0  0  0  0  0  0  0  0  0  0
    4.9073   -2.0455   -6.0523 H   0  0  0  0  0  0  0  0  0  0  0  0
    6.0267   -3.1451   -5.2268 H   0  0  0  0  0  0  0  0  0  0  0  0
    6.1167   -1.4007   -4.9272 H   0  0  0  0  0  0  0  0  0  0  0  0
    3.7446   -3.2076   -4.1955 H   0  0  0  0  0  0  0  0  0  0  0  0
    3.8259   -1.4664   -3.9001 H   0  0  0  0  0  0  0  0  0  0  0  0
    6.0427   -2.7310   -2.6158 H   0  0  0  0  0  0  0  0  0  0  0  0
    4.5020   -3.9970    0.1449 H   0  0  0  0  0  0  0  0  0  0  0  0
    4.5260   -2.2658    0.4488 H   0  0  0  0  0  0  0  0  0  0  0  0
    6.5103   -0.9163    0.1726 H   0  0  0  0  0  0  0  0  0  0  0  0
    8.9082   -0.8384    0.2568 H   0  0  0  0  0  0  0  0  0  0  0  0
   11.0333   -3.8129   -0.4222 H   0  0  0  0  0  0  0  0  0  0  0  0
   13.3068   -1.2451   -0.1016 H   0  0  0  0  0  0  0  0  0  0  0  0
   12.8445   -4.1332    0.3430 H   0  0  0  0  0  0  0  0  0  0  0  0
   14.3968   -3.3041    0.2228 H   0  0  0  0  0  0  0  0  0  0  0  0
   14.8974   -2.1966   -2.1011 H   0  0  0  0  0  0  0  0  0  0  0  0
   13.4817   -0.8069   -3.9454 H   0  0  0  0  0  0  0  0  0  0  0  0
   14.0480    1.5929   -3.7567 H   0  0  0  0  0  0  0  0  0  0  0  0
   17.4846   -1.6208   -5.3651 H   0  0  0  0  0  0  0  0  0  0  0  0
   13.8087   -4.8192   -5.3371 H   0  0  0  0  0  0  0  0  0  0  0  0
   12.3056   -6.0074   -3.7387 H   0  0  0  0  0  0  0  0  0  0  0  0
    9.1003   -5.1028   -0.4343 H   0  0  0  0  0  0  0  0  0  0  0  0
    6.6400   -5.1825   -0.4843 H   0  0  0  0  0  0  0  0  0  0  0  0
  1  2  1  0  0  0  0
  1 33  1  0  0  0  0
  1 34  1  0  0  0  0
  1 35  1  0  0  0  0
  2  3  1  0  0  0  0
  2 36  1  0  0  0  0
  2 37  1  0  0  0  0
  3  4  1  0  0  0  0
  3 38  1  0  0  0  0
  4  5  2  0  0  0  0
  4  6  1  0  0  0  0
  6  7  1  0  0  0  0
  6 39  1  0  0  0  0
  6 40  1  0  0  0  0
  7  8  2  0  0  0  0
  7 32  1  0  0  0  0
  8  9  1  0  0  0  0
  8 41  1  0  0  0  0
  9 10  2  0  0  0  0
  9 42  1  0  0  0  0
 10 11  1  0  0  0  0
 10 31  1  0  0  0  0
 11 12  1  0  0  0  0
 11 43  1  0  0  0  0
 12 13  2  0  0  0  0
 12 14  1  0  0  0  0
 14 15  1  0  0  0  0
 14 44  1  0  0  0  0
 15 16  1  0  0  0  0
 15 45  1  0  0  0  0
 15 46  1  0  0  0  0
 16 17  2  0  0  0  0
 16 30  1  0  0  0  0
 17 18  1  0  0  0  0
 17 47  1  0  0  0  0
 18 19  1  0  0  0  0
 18 28  2  0  0  0  0
 19 20  1  0  0  0  0
 20 21  2  0  0  0  0
 20 27  1  0  0  0  0
 21 22  1  0  0  0  0
 21 48  1  0  0  0  0
 22 23  2  0  0  0  0
 22 49  1  0  0  0  0
 23 24  1  0  0  0  0
 23 25  1  0  0  0  0
 25 26  1  0  0  0  0
 25 27  2  0  0  0  0
 27 50  1  0  0  0  0
 28 29  1  0  0  0  0
 28 51  1  0  0  0  0
 29 30  2  0  0  0  0
 29 52  1  0  0  0  0
 31 32  2  0  0  0  0
 31 53  1  0  0  0  0
 32 54  1  0  0  0  0
M  END
$$$$
