
 OpenBabel01122422353D

 49 52  0  0  1  0  0  0  0  0999 V2000
    2.9533    1.5395   -1.8673 O   0  0  0  0  0  0  0  0  0  0  0  0
    3.2987    0.7834   -0.9633 C   0  0  0  0  0  0  0  0  0  0  0  0
    3.0665    1.0517    0.3715 N   0  0  0  0  0  0  0  0  0  0  0  0
    2.4246    2.2891    0.8166 C   0  0  3  0  0  0  0  0  0  0  0  0
    1.5670    2.0248    2.0761 C   0  0  0  0  0  0  0  0  0  0  0  0
    1.7532    2.5928    3.1572 O   0  0  0  0  0  0  0  0  0  0  0  0
    0.4065    1.0652    1.9320 C   0  0  0  0  0  0  0  0  0  0  0  0
   -0.8941    1.7236    1.5455 C   0  0  0  0  0  0  0  0  0  0  0  0
   -1.5719    1.3168    0.3888 C   0  0  0  0  0  0  0  0  0  0  0  0
   -2.8259    1.8462    0.0788 C   0  0  0  0  0  0  0  0  0  0  0  0
   -3.4137    2.7913    0.9167 C   0  0  0  0  0  0  0  0  0  0  0  0
   -2.7404    3.2207    2.0580 C   0  0  0  0  0  0  0  0  0  0  0  0
   -1.4866    2.6910    2.3716 C   0  0  0  0  0  0  0  0  0  0  0  0
    3.4154    3.4195    1.0639 C   0  0  0  0  0  0  0  0  0  0  0  0
    3.0238    4.7441    0.7964 C   0  0  0  0  0  0  0  0  0  0  0  0
    3.8296    5.8186    1.1770 C   0  0  0  0  0  0  0  0  0  0  0  0
    5.0408    5.5855    1.8228 C   0  0  0  0  0  0  0  0  0  0  0  0
    5.4566    4.2786    2.0697 C   0  0  0  0  0  0  0  0  0  0  0  0
    4.6513    3.2011    1.6927 C   0  0  0  0  0  0  0  0  0  0  0  0
    3.9881   -0.5138   -1.2663 C   0  0  0  0  0  0  0  0  0  0  0  0
    4.3112   -0.8090   -2.5917 C   0  0  0  0  0  0  0  0  0  0  0  0
    4.9117   -2.0324   -2.8791 C   0  0  0  0  0  0  0  0  0  0  0  0
    5.1608   -2.9156   -1.8324 C   0  0  0  0  0  0  0  0  0  0  0  0
    5.7822   -4.2380   -2.0684 C   0  0  0  0  0  0  0  0  0  0  0  0
    6.1136   -4.6033   -3.1921 O   0  0  0  0  0  0  0  0  0  0  0  0
    5.9613   -5.0315   -0.9536 N   0  0  0  0  0  0  0  0  0  0  0  0
    5.6053   -4.6671    0.3186 C   0  0  0  0  0  0  0  0  0  0  0  0
    5.0465   -3.4769    0.5698 C   0  0  0  0  0  0  0  0  0  0  0  0
    4.8068   -2.5467   -0.5333 C   0  0  0  0  0  0  0  0  0  0  0  0
    4.2260   -1.3565   -0.2175 N   0  0  0  0  0  0  0  0  0  0  0  0
    3.4671    0.4073    1.0455 H   0  0  0  0  0  0  0  0  0  0  0  0
    1.7357    2.6090    0.0237 H   0  0  0  0  0  0  0  0  0  0  0  0
    0.2708    0.5602    2.8972 H   0  0  0  0  0  0  0  0  0  0  0  0
    0.6770    0.2754    1.2234 H   0  0  0  0  0  0  0  0  0  0  0  0
   -1.1403    0.5682   -0.2716 H   0  0  0  0  0  0  0  0  0  0  0  0
   -3.3515    1.5092   -0.8112 H   0  0  0  0  0  0  0  0  0  0  0  0
   -4.3987    3.1882    0.6833 H   0  0  0  0  0  0  0  0  0  0  0  0
   -3.1976    3.9583    2.7128 H   0  0  0  0  0  0  0  0  0  0  0  0
   -0.9846    3.0268    3.2785 H   0  0  0  0  0  0  0  0  0  0  0  0
    2.0655    4.9506    0.3234 H   0  0  0  0  0  0  0  0  0  0  0  0
    3.4978    6.8373    0.9939 H   0  0  0  0  0  0  0  0  0  0  0  0
    5.6531    6.4223    2.1475 H   0  0  0  0  0  0  0  0  0  0  0  0
    6.3964    4.0983    2.5847 H   0  0  0  0  0  0  0  0  0  0  0  0
    4.9795    2.1944    1.9351 H   0  0  0  0  0  0  0  0  0  0  0  0
    4.0938   -0.1024   -3.3878 H   0  0  0  0  0  0  0  0  0  0  0  0
    5.1722   -2.2956   -3.9018 H   0  0  0  0  0  0  0  0  0  0  0  0
    6.3851   -5.9373   -1.1250 H   0  0  0  0  0  0  0  0  0  0  0  0
    5.8011   -5.3943    1.1009 H   0  0  0  0  0  0  0  0  0  0  0  0
    4.7581   -3.1757    1.5689 H   0  0  0  0  0  0  0  0  0  0  0  0
  1  2  2  0  0  0  0
  2  3  1  0  0  0  0
  2 20  1  0  0  0  0
  3  4  1  0  0  0  0
  3 31  1  0  0  0  0
  4  5  1  0  0  0  0
  4 14  1  0  0  0  0
  4 32  1  0  0  0  0
  5  6  2  0  0  0  0
  5  7  1  0  0  0  0
  7  8  1  0  0  0  0
  7 33  1  0  0  0  0
  7 34  1  0  0  0  0
  8  9  2  0  0  0  0
  8 13  1  0  0  0  0
  9 10  1  0  0  0  0
  9 35  1  0  0  0  0
 10 11  2  0  0  0  0
 10 36  1  0  0  0  0
 11 12  1  0  0  0  0
 11 37  1  0  0  0  0
 12 13  2  0  0  0  0
 12 38  1  0  0  0  0
 13 39  1  0  0  0  0
 14 15  2  0  0  0  0
 14 19  1  0  0  0  0
 15 16  1  0  0  0  0
 15 40  1  0  0  0  0
 16 17  2  0  0  0  0
 16 41  1  0  0  0  0
 17 18  1  0  0  0  0
 17 42  1  0  0  0  0
 18 19  2  0  0  0  0
 18 43  1  0  0  0  0
 19 44  1  0  0  0  0
 20 21  2  0  0  0  0
 20 30  1  0  0  0  0
 21 22  1  0  0  0  0
 21 45  1  0  0  0  0
 22 23  2  0  0  0  0
 22 46  1  0  0  0  0
 23 24  1  0  0  0  0
 23 29  1  0  0  0  0
 24 25  2  0  0  0  0
 24 26  1  0  0  0  0
 26 27  1  0  0  0  0
 26 47  1  0  0  0  0
 27 28  2  0  0  0  0
 27 48  1  0  0  0  0
 28 29  1  0  0  0  0
 28 49  1  0  0  0  0
 29 30  2  0  0  0  0
M  END
$$$$
