
 OpenBabel01122422363D

 45 48  0  0  0  0  0  0  0  0999 V2000
    0.1049   -2.0828    5.7374 N   0  0  0  0  0  0  0  0  0  0  0  0
    0.8498   -1.9181    4.8613 C   0  0  0  0  0  0  0  0  0  0  0  0
    1.7667   -1.7266    3.7782 C   0  0  0  0  0  0  0  0  0  0  0  0
    1.4678   -2.2459    2.5152 C   0  0  0  0  0  0  0  0  0  0  0  0
    2.3838   -2.1191    1.4670 C   0  0  0  0  0  0  0  0  0  0  0  0
    2.1668   -2.6140    0.1992 O   0  0  0  0  0  0  0  0  0  0  0  0
    1.4603   -3.8054    0.0651 C   0  0  0  0  0  0  0  0  0  0  0  0
    0.7136   -3.9593   -1.0883 C   0  0  0  0  0  0  0  0  0  0  0  0
   -0.0475   -5.1241   -1.2411 C   0  0  0  0  0  0  0  0  0  0  0  0
   -0.0425   -6.1123   -0.2562 C   0  0  0  0  0  0  0  0  0  0  0  0
   -0.8153   -7.3095   -0.3098 N   0  0  0  0  0  0  0  0  0  0  0  0
   -1.6794   -7.6656   -1.3214 C   0  0  0  0  0  0  0  0  0  0  0  0
   -1.9033   -7.0050   -2.3277 O   0  0  0  0  0  0  0  0  0  0  0  0
   -2.2947   -8.8854   -1.1381 N   0  0  0  0  0  0  0  0  0  0  0  0
   -3.2361   -9.3080   -2.1538 C   0  0  0  0  0  0  0  0  0  0  0  0
   -3.8722  -10.6296   -1.8713 C   0  0  0  0  0  0  0  0  0  0  0  0
   -4.7811  -11.3004   -2.6742 C   0  0  0  0  0  0  0  0  0  0  0  0
   -5.0770  -12.4678   -2.0214 N   0  0  0  0  0  0  0  0  0  0  0  0
   -5.9249  -13.5076   -2.3966 C   0  0  0  0  0  0  0  0  0  0  0  0
   -6.0436  -14.5639   -1.5782 C   0  0  0  0  0  0  0  0  0  0  0  0
   -6.8443  -15.6015   -1.8871 F   0  0  0  0  0  0  0  0  0  0  0  0
   -5.2991  -14.6004   -0.3344 C   0  0  0  0  0  0  0  0  0  0  0  0
   -4.4832  -13.5871    0.0204 C   0  0  0  0  0  0  0  0  0  0  0  0
   -4.3415  -12.4567   -0.8379 C   0  0  0  0  0  0  0  0  0  0  0  0
   -3.6171  -11.3598   -0.7256 N   0  0  0  0  0  0  0  0  0  0  0  0
    0.7858   -5.8725    0.8429 C   0  0  0  0  0  0  0  0  0  0  0  0
    1.5389   -4.7553    1.0250 N   0  0  0  0  0  0  0  0  0  0  0  0
    3.5630   -1.3956    1.6655 C   0  0  0  0  0  0  0  0  0  0  0  0
    3.8557   -0.8572    2.9219 C   0  0  0  0  0  0  0  0  0  0  0  0
    2.9642   -1.0338    3.9816 C   0  0  0  0  0  0  0  0  0  0  0  0
    0.5264   -2.7676    2.3607 H   0  0  0  0  0  0  0  0  0  0  0  0
    0.6979   -3.1877   -1.8512 H   0  0  0  0  0  0  0  0  0  0  0  0
   -0.6383   -5.2143   -2.1449 H   0  0  0  0  0  0  0  0  0  0  0  0
   -0.7333   -7.9511    0.4665 H   0  0  0  0  0  0  0  0  0  0  0  0
   -2.2811   -9.4012   -0.2682 H   0  0  0  0  0  0  0  0  0  0  0  0
   -2.6979   -9.3611   -3.1078 H   0  0  0  0  0  0  0  0  0  0  0  0
   -4.0141   -8.5409   -2.2437 H   0  0  0  0  0  0  0  0  0  0  0  0
   -5.2214  -11.0496   -3.6288 H   0  0  0  0  0  0  0  0  0  0  0  0
   -6.4572  -13.4306   -3.3353 H   0  0  0  0  0  0  0  0  0  0  0  0
   -5.4240  -15.4733    0.2981 H   0  0  0  0  0  0  0  0  0  0  0  0
   -3.9231  -13.6064    0.9474 H   0  0  0  0  0  0  0  0  0  0  0  0
    0.8731   -6.5898    1.6543 H   0  0  0  0  0  0  0  0  0  0  0  0
    4.2626   -1.2568    0.8450 H   0  0  0  0  0  0  0  0  0  0  0  0
    4.7820   -0.3086    3.0772 H   0  0  0  0  0  0  0  0  0  0  0  0
    3.2074   -0.6283    4.9620 H   0  0  0  0  0  0  0  0  0  0  0  0
  1  2  3  0  0  0  0
  2  3  1  0  0  0  0
  3  4  2  0  0  0  0
  3 30  1  0  0  0  0
  4  5  1  0  0  0  0
  4 31  1  0  0  0  0
  5  6  1  0  0  0  0
  5 28  2  0  0  0  0
  6  7  1  0  0  0  0
  7  8  2  0  0  0  0
  7 27  1  0  0  0  0
  8  9  1  0  0  0  0
  8 32  1  0  0  0  0
  9 10  2  0  0  0  0
  9 33  1  0  0  0  0
 10 11  1  0  0  0  0
 10 26  1  0  0  0  0
 11 12  1  0  0  0  0
 11 34  1  0  0  0  0
 12 13  2  0  0  0  0
 12 14  1  0  0  0  0
 14 15  1  0  0  0  0
 14 35  1  0  0  0  0
 15 16  1  0  0  0  0
 15 36  1  0  0  0  0
 15 37  1  0  0  0  0
 16 17  2  0  0  0  0
 16 25  1  0  0  0  0
 17 18  1  0  0  0  0
 17 38  1  0  0  0  0
 18 19  1  0  0  0  0
 18 24  1  0  0  0  0
 19 20  2  0  0  0  0
 19 39  1  0  0  0  0
 20 21  1  0  0  0  0
 20 22  1  0  0  0  0
 22 23  2  0  0  0  0
 22 40  1  0  0  0  0
 23 24  1  0  0  0  0
 23 41  1  0  0  0  0
 24 25  2  0  0  0  0
 26 27  2  0  0  0  0
 26 42  1  0  0  0  0
 28 29  1  0  0  0  0
 28 43  1  0  0  0  0
 29 30  2  0  0  0  0
 29 44  1  0  0  0  0
 30 45  1  0  0  0  0
M  END
$$$$
