
 OpenBabel01122422363D

 40 43  0  0  0  0  0  0  0  0999 V2000
    1.0199   -0.2486   -0.0921 O   0  0  0  0  0  0  0  0  0  0  0  0
    2.2498   -0.1857   -0.0842 C   0  0  0  0  0  0  0  0  0  0  0  0
    2.9913   -0.5823   -1.1720 N   0  0  0  0  0  0  0  0  0  0  0  0
    2.3375   -1.1292   -2.3463 C   0  0  0  0  0  0  0  0  0  0  0  0
    2.0896   -2.5894   -2.1948 C   0  0  0  0  0  0  0  0  0  0  0  0
    3.0772   -3.4885   -2.0687 N   0  0  0  0  0  0  0  0  0  0  0  0
    2.3875   -4.6998   -1.9371 O   0  0  0  0  0  0  0  0  0  0  0  0
    1.0543   -4.4028   -2.0126 C   0  0  0  0  0  0  0  0  0  0  0  0
    0.1024   -5.4977   -1.8675 C   0  0  0  0  0  0  0  0  0  0  0  0
   -1.2694   -5.2179   -1.9543 C   0  0  0  0  0  0  0  0  0  0  0  0
   -2.2050   -6.2319   -1.7839 C   0  0  0  0  0  0  0  0  0  0  0  0
   -3.5105   -5.9426   -1.8598 F   0  0  0  0  0  0  0  0  0  0  0  0
   -1.8076   -7.5371   -1.5264 C   0  0  0  0  0  0  0  0  0  0  0  0
   -0.4493   -7.8353   -1.4448 C   0  0  0  0  0  0  0  0  0  0  0  0
    0.5018   -6.8216   -1.6180 C   0  0  0  0  0  0  0  0  0  0  0  0
    0.8250   -3.1214   -2.1971 N   0  0  0  0  0  0  0  0  0  0  0  0
    2.9957    0.3793    1.0394 C   0  0  0  0  0  0  0  0  0  0  0  0
    4.2559    0.0032    1.3143 N   0  0  0  0  0  0  0  0  0  0  0  0
    4.6046    0.6749    2.4764 O   0  0  0  0  0  0  0  0  0  0  0  0
    3.5845    1.4845    2.8559 C   0  0  0  0  0  0  0  0  0  0  0  0
    2.5385    1.3616    1.9755 C   0  0  0  0  0  0  0  0  0  0  0  0
    1.2873    2.0999    2.0532 C   0  0  0  0  0  0  0  0  0  0  0  0
    0.6077    2.4725    0.8796 C   0  0  0  0  0  0  0  0  0  0  0  0
   -0.6465    3.0820    0.9414 C   0  0  0  0  0  0  0  0  0  0  0  0
   -1.2108    3.3628    2.1772 C   0  0  0  0  0  0  0  0  0  0  0  0
   -2.4153    3.9419    2.2364 F   0  0  0  0  0  0  0  0  0  0  0  0
   -0.5422    3.0500    3.3530 C   0  0  0  0  0  0  0  0  0  0  0  0
    0.6986    2.4232    3.2827 C   0  0  0  0  0  0  0  0  0  0  0  0
    1.3138    2.1179    4.4365 F   0  0  0  0  0  0  0  0  0  0  0  0
    4.0003   -0.6302   -1.0792 H   0  0  0  0  0  0  0  0  0  0  0  0
    2.9740   -0.9325   -3.2138 H   0  0  0  0  0  0  0  0  0  0  0  0
    1.3859   -0.6068   -2.5060 H   0  0  0  0  0  0  0  0  0  0  0  0
   -1.6208   -4.2062   -2.1433 H   0  0  0  0  0  0  0  0  0  0  0  0
   -2.5584   -8.3087   -1.3863 H   0  0  0  0  0  0  0  0  0  0  0  0
   -0.1294   -8.8539   -1.2378 H   0  0  0  0  0  0  0  0  0  0  0  0
    1.5569   -7.0801   -1.5430 H   0  0  0  0  0  0  0  0  0  0  0  0
    3.7619    2.0660    3.7522 H   0  0  0  0  0  0  0  0  0  0  0  0
    1.0197    2.2626   -0.1046 H   0  0  0  0  0  0  0  0  0  0  0  0
   -1.1894    3.3179    0.0301 H   0  0  0  0  0  0  0  0  0  0  0  0
   -0.9883    3.2744    4.3130 H   0  0  0  0  0  0  0  0  0  0  0  0
  1  2  2  0  0  0  0
  2  3  1  0  0  0  0
  2 17  1  0  0  0  0
  3  4  1  0  0  0  0
  3 30  1  0  0  0  0
  4  5  1  0  0  0  0
  4 31  1  0  0  0  0
  4 32  1  0  0  0  0
  5  6  2  0  0  0  0
  5 16  1  0  0  0  0
  6  7  1  0  0  0  0
  7  8  1  0  0  0  0
  8  9  1  0  0  0  0
  8 16  2  0  0  0  0
  9 10  2  0  0  0  0
  9 15  1  0  0  0  0
 10 11  1  0  0  0  0
 10 33  1  0  0  0  0
 11 12  1  0  0  0  0
 11 13  2  0  0  0  0
 13 14  1  0  0  0  0
 13 34  1  0  0  0  0
 14 15  2  0  0  0  0
 14 35  1  0  0  0  0
 15 36  1  0  0  0  0
 17 18  2  0  0  0  0
 17 21  1  0  0  0  0
 18 19  1  0  0  0  0
 19 20  1  0  0  0  0
 20 21  2  0  0  0  0
 20 37  1  0  0  0  0
 21 22  1  0  0  0  0
 22 23  2  0  0  0  0
 22 28  1  0  0  0  0
 23 24  1  0  0  0  0
 23 38  1  0  0  0  0
 24 25  2  0  0  0  0
 24 39  1  0  0  0  0
 25 26  1  0  0  0  0
 25 27  1  0  0  0  0
 27 28  2  0  0  0  0
 27 40  1  0  0  0  0
 28 29  1  0  0  0  0
M  END
$$$$
