
 OpenBabel01122422373D

 43 46  0  0  0  0  0  0  0  0999 V2000
    0.9949    0.0844   -0.1129 O   0  0  0  0  0  0  0  0  0  0  0  0
    2.2156    0.0177    0.0159 C   0  0  0  0  0  0  0  0  0  0  0  0
    2.8730   -0.6619    1.0271 N   0  0  0  0  0  0  0  0  0  0  0  0
    2.2425   -1.4287    1.9831 C   0  0  0  0  0  0  0  0  0  0  0  0
    1.0326   -1.9809    1.8013 C   0  0  0  0  0  0  0  0  0  0  0  0
    0.3510   -2.6853    2.7848 N   0  0  0  0  0  0  0  0  0  0  0  0
   -0.9838   -3.1466    2.5365 C   0  0  0  0  0  0  0  0  0  0  0  0
   -1.8950   -2.3307    1.8437 C   0  0  0  0  0  0  0  0  0  0  0  0
   -3.2121   -2.7463    1.6376 C   0  0  0  0  0  0  0  0  0  0  0  0
   -3.6222   -3.9992    2.0846 C   0  0  0  0  0  0  0  0  0  0  0  0
   -2.7177   -4.8353    2.7366 C   0  0  0  0  0  0  0  0  0  0  0  0
   -1.4086   -4.4065    2.9731 C   0  0  0  0  0  0  0  0  0  0  0  0
    0.9136   -2.8522    4.0607 C   0  0  0  0  0  0  0  0  0  0  0  0
    0.3815   -3.3794    5.0360 O   0  0  0  0  0  0  0  0  0  0  0  0
    2.2800   -2.2799    4.2452 C   0  0  0  0  0  0  0  0  0  0  0  0
    2.9034   -1.6298    3.2518 C   0  0  0  0  0  0  0  0  0  0  0  0
    3.0858    0.7310   -0.9164 C   0  0  0  0  0  0  0  0  0  0  0  0
    2.6168    1.5849   -1.8877 C   0  0  0  0  0  0  0  0  0  0  0  0
    3.6969    1.9747   -2.6352 N   0  0  0  0  0  0  0  0  0  0  0  0
    3.6638    2.8107   -3.7889 C   0  0  0  0  0  0  0  0  0  0  0  0
    4.8252    3.0527   -4.5321 C   0  0  0  0  0  0  0  0  0  0  0  0
    4.7649    3.8706   -5.6649 C   0  0  0  0  0  0  0  0  0  0  0  0
    6.1929    4.1576   -6.5822 Cl  0  0  0  0  0  0  0  0  0  0  0  0
    3.5626    4.4515   -6.0676 C   0  0  0  0  0  0  0  0  0  0  0  0
    2.4065    4.2129   -5.3351 C   0  0  0  0  0  0  0  0  0  0  0  0
    2.4555    3.3957   -4.2037 C   0  0  0  0  0  0  0  0  0  0  0  0
    4.7850    1.3690   -2.0351 C   0  0  0  0  0  0  0  0  0  0  0  0
    4.4562    0.6347   -0.9883 N   0  0  0  0  0  0  0  0  0  0  0  0
    3.8600   -0.4424    1.1241 H   0  0  0  0  0  0  0  0  0  0  0  0
    0.5303   -1.9298    0.8395 H   0  0  0  0  0  0  0  0  0  0  0  0
   -1.6085   -1.3357    1.5091 H   0  0  0  0  0  0  0  0  0  0  0  0
   -3.9173   -2.0835    1.1437 H   0  0  0  0  0  0  0  0  0  0  0  0
   -4.6485   -4.3216    1.9310 H   0  0  0  0  0  0  0  0  0  0  0  0
   -3.0312   -5.8204    3.0716 H   0  0  0  0  0  0  0  0  0  0  0  0
   -0.7183   -5.0777    3.4779 H   0  0  0  0  0  0  0  0  0  0  0  0
    2.7158   -2.4027    5.2292 H   0  0  0  0  0  0  0  0  0  0  0  0
    3.8892   -1.2101    3.4137 H   0  0  0  0  0  0  0  0  0  0  0  0
    1.5986    1.8812   -2.0936 H   0  0  0  0  0  0  0  0  0  0  0  0
    5.7823    2.6143   -4.2693 H   0  0  0  0  0  0  0  0  0  0  0  0
    3.5232    5.0863   -6.9489 H   0  0  0  0  0  0  0  0  0  0  0  0
    1.4636    4.6616   -5.6447 H   0  0  0  0  0  0  0  0  0  0  0  0
    1.5199    3.2454   -3.6678 H   0  0  0  0  0  0  0  0  0  0  0  0
    5.7969    1.4913   -2.3975 H   0  0  0  0  0  0  0  0  0  0  0  0
  1  2  2  0  0  0  0
  2  3  1  0  0  0  0
  2 17  1  0  0  0  0
  3  4  1  0  0  0  0
  3 29  1  0  0  0  0
  4  5  2  0  0  0  0
  4 16  1  0  0  0  0
  5  6  1  0  0  0  0
  5 30  1  0  0  0  0
  6  7  1  0  0  0  0
  6 13  1  0  0  0  0
  7  8  2  0  0  0  0
  7 12  1  0  0  0  0
  8  9  1  0  0  0  0
  8 31  1  0  0  0  0
  9 10  2  0  0  0  0
  9 32  1  0  0  0  0
 10 11  1  0  0  0  0
 10 33  1  0  0  0  0
 11 12  2  0  0  0  0
 11 34  1  0  0  0  0
 12 35  1  0  0  0  0
 13 14  2  0  0  0  0
 13 15  1  0  0  0  0
 15 16  2  0  0  0  0
 15 36  1  0  0  0  0
 16 37  1  0  0  0  0
 17 18  2  0  0  0  0
 17 28  1  0  0  0  0
 18 19  1  0  0  0  0
 18 38  1  0  0  0  0
 19 20  1  0  0  0  0
 19 27  1  0  0  0  0
 20 21  2  0  0  0  0
 20 26  1  0  0  0  0
 21 22  1  0  0  0  0
 21 39  1  0  0  0  0
 22 23  1  0  0  0  0
 22 24  2  0  0  0  0
 24 25  1  0  0  0  0
 24 40  1  0  0  0  0
 25 26  2  0  0  0  0
 25 41  1  0  0  0  0
 26 42  1  0  0  0  0
 27 28  2  0  0  0  0
 27 43  1  0  0  0  0
M  END
$$$$
