
 OpenBabel01122422353D

 42 45  0  0  0  0  0  0  0  0999 V2000
    2.6265   -1.7701   -1.1121 O   0  0  0  0  0  0  0  0  0  0  0  0
    3.4260   -1.0253   -0.5529 C   0  0  0  0  0  0  0  0  0  0  0  0
    3.3788   -0.7831    0.8011 N   0  0  0  0  0  0  0  0  0  0  0  0
    2.5183   -1.5793    1.6676 C   0  0  0  0  0  0  0  0  0  0  0  0
    3.3355   -2.3705    2.6593 C   0  0  0  0  0  0  0  0  0  0  0  0
    3.4765   -3.7536    2.5751 C   0  0  0  0  0  0  0  0  0  0  0  0
    4.2492   -4.4787    3.4315 N   0  0  0  0  0  0  0  0  0  0  0  0
    4.9039   -3.7824    4.3967 C   0  0  0  0  0  0  0  0  0  0  0  0
    5.7770   -4.5205    5.3284 C   0  0  0  0  0  0  0  0  0  0  0  0
    6.9245   -3.9206    5.8908 C   0  0  0  0  0  0  0  0  0  0  0  0
    7.7110   -4.5849    6.8361 C   0  0  0  0  0  0  0  0  0  0  0  0
    7.3770   -5.8761    7.2301 C   0  0  0  0  0  0  0  0  0  0  0  0
    6.2717   -6.5000    6.6611 C   0  0  0  0  0  0  0  0  0  0  0  0
    5.4900   -5.8437    5.7055 C   0  0  0  0  0  0  0  0  0  0  0  0
    4.7245   -2.4016    4.4910 C   0  0  0  0  0  0  0  0  0  0  0  0
    3.9733   -1.6677    3.6288 N   0  0  0  0  0  0  0  0  0  0  0  0
    4.5941   -0.5187   -1.3101 C   0  0  0  0  0  0  0  0  0  0  0  0
    5.3116    0.6341   -1.0530 C   0  0  0  0  0  0  0  0  0  0  0  0
    6.4808    0.9491   -1.6880 N   0  0  0  0  0  0  0  0  0  0  0  0
    7.0390    0.0319   -2.5305 C   0  0  0  0  0  0  0  0  0  0  0  0
    8.2824    0.1905   -3.1681 C   0  0  0  0  0  0  0  0  0  0  0  0
    8.9467    1.3529   -3.0635 F   0  0  0  0  0  0  0  0  0  0  0  0
    8.8925   -0.8327   -3.9086 C   0  0  0  0  0  0  0  0  0  0  0  0
    8.2728   -2.0695   -4.0141 C   0  0  0  0  0  0  0  0  0  0  0  0
    7.0104   -2.2223   -3.4701 C   0  0  0  0  0  0  0  0  0  0  0  0
    6.4294   -3.4309   -3.5256 F   0  0  0  0  0  0  0  0  0  0  0  0
    6.3808   -1.1794   -2.7920 C   0  0  0  0  0  0  0  0  0  0  0  0
    5.0928   -1.3712   -2.2840 C   0  0  0  0  0  0  0  0  0  0  0  0
    4.1318   -0.2863    1.2688 H   0  0  0  0  0  0  0  0  0  0  0  0
    1.8650   -2.2370    1.0867 H   0  0  0  0  0  0  0  0  0  0  0  0
    1.8806   -0.8781    2.2153 H   0  0  0  0  0  0  0  0  0  0  0  0
    2.9759   -4.3340    1.8047 H   0  0  0  0  0  0  0  0  0  0  0  0
    7.2293   -2.9186    5.5937 H   0  0  0  0  0  0  0  0  0  0  0  0
    8.5867   -4.0961    7.2541 H   0  0  0  0  0  0  0  0  0  0  0  0
    7.9791   -6.3892    7.9765 H   0  0  0  0  0  0  0  0  0  0  0  0
    6.0139   -7.5157    6.9627 H   0  0  0  0  0  0  0  0  0  0  0  0
    4.6185   -6.3471    5.2912 H   0  0  0  0  0  0  0  0  0  0  0  0
    5.1926   -1.8166    5.2747 H   0  0  0  0  0  0  0  0  0  0  0  0
    4.9840    1.3683   -0.3223 H   0  0  0  0  0  0  0  0  0  0  0  0
    9.8589   -0.6634   -4.3729 H   0  0  0  0  0  0  0  0  0  0  0  0
    8.7517   -2.9113   -4.5044 H   0  0  0  0  0  0  0  0  0  0  0  0
    4.5105   -2.2355   -2.6000 H   0  0  0  0  0  0  0  0  0  0  0  0
  1  2  2  0  0  0  0
  2  3  1  0  0  0  0
  2 17  1  0  0  0  0
  3  4  1  0  0  0  0
  3 29  1  0  0  0  0
  4  5  1  0  0  0  0
  4 30  1  0  0  0  0
  4 31  1  0  0  0  0
  5  6  2  0  0  0  0
  5 16  1  0  0  0  0
  6  7  1  0  0  0  0
  6 32  1  0  0  0  0
  7  8  2  0  0  0  0
  8  9  1  0  0  0  0
  8 15  1  0  0  0  0
  9 10  2  0  0  0  0
  9 14  1  0  0  0  0
 10 11  1  0  0  0  0
 10 33  1  0  0  0  0
 11 12  2  0  0  0  0
 11 34  1  0  0  0  0
 12 13  1  0  0  0  0
 12 35  1  0  0  0  0
 13 14  2  0  0  0  0
 13 36  1  0  0  0  0
 14 37  1  0  0  0  0
 15 16  2  0  0  0  0
 15 38  1  0  0  0  0
 17 18  2  0  0  0  0
 17 28  1  0  0  0  0
 18 19  1  0  0  0  0
 18 39  1  0  0  0  0
 19 20  2  0  0  0  0
 20 21  1  0  0  0  0
 20 27  1  0  0  0  0
 21 22  1  0  0  0  0
 21 23  2  0  0  0  0
 23 24  1  0  0  0  0
 23 40  1  0  0  0  0
 24 25  2  0  0  0  0
 24 41  1  0  0  0  0
 25 26  1  0  0  0  0
 25 27  1  0  0  0  0
 27 28  2  0  0  0  0
 28 42  1  0  0  0  0
M  END
$$$$
