
 OpenBabel01122422373D

 44 47  0  0  0  0  0  0  0  0999 V2000
    1.0192   -0.2456    0.1781 O   0  0  0  0  0  0  0  0  0  0  0  0
    2.2490   -0.1893    0.1109 C   0  0  0  0  0  0  0  0  0  0  0  0
    2.9451   -0.5015   -1.0347 N   0  0  0  0  0  0  0  0  0  0  0  0
    2.2889   -0.9107   -2.2442 C   0  0  0  0  0  0  0  0  0  0  0  0
    2.7209   -2.2866   -2.6810 C   0  0  0  0  0  0  0  0  0  0  0  0
    2.0895   -3.4217   -2.1506 C   0  0  0  0  0  0  0  0  0  0  0  0
    2.4399   -4.6927   -2.5916 C   0  0  0  0  0  0  0  0  0  0  0  0
    3.4107   -4.8435   -3.5811 C   0  0  0  0  0  0  0  0  0  0  0  0
    4.0478   -3.7278   -4.1447 C   0  0  0  0  0  0  0  0  0  0  0  0
    4.9513   -3.9093   -5.2779 C   0  0  0  0  0  0  0  0  0  0  0  0
    5.2934   -4.9998   -6.0570 C   0  0  0  0  0  0  0  0  0  0  0  0
    6.1528   -4.5253   -7.0758 C   0  0  0  0  0  0  0  0  0  0  0  0
    6.2978   -3.1777   -6.8518 C   0  0  0  0  0  0  0  0  0  0  0  0
    5.5795   -2.7945   -5.7637 O   0  0  0  0  0  0  0  0  0  0  0  0
    3.7226   -2.4542   -3.6536 C   0  0  0  0  0  0  0  0  0  0  0  0
    3.1008    0.1992    1.2432 C   0  0  0  0  0  0  0  0  0  0  0  0
    4.4499    0.2280    1.1522 N   0  0  0  0  0  0  0  0  0  0  0  0
    4.8833    0.5483    2.4019 N   0  0  0  0  0  0  0  0  0  0  0  0
    6.2752    0.6129    2.7057 C   0  0  0  0  0  0  0  0  0  0  0  0
    7.2204    0.4173    1.6848 C   0  0  0  0  0  0  0  0  0  0  0  0
    8.5866    0.4849    1.9718 C   0  0  0  0  0  0  0  0  0  0  0  0
    9.0058    0.7362    3.2734 C   0  0  0  0  0  0  0  0  0  0  0  0
   10.3143    0.7979    3.5469 F   0  0  0  0  0  0  0  0  0  0  0  0
    8.0849    0.9220    4.2956 C   0  0  0  0  0  0  0  0  0  0  0  0
    6.7171    0.8645    4.0156 C   0  0  0  0  0  0  0  0  0  0  0  0
    3.8340    0.7777    3.2654 C   0  0  0  0  0  0  0  0  0  0  0  0
    2.6940    0.5745    2.5417 C   0  0  0  0  0  0  0  0  0  0  0  0
    1.4550    0.7047    3.0371 O   0  0  0  0  0  0  0  0  0  0  0  0
    3.9533   -0.4218   -0.9883 H   0  0  0  0  0  0  0  0  0  0  0  0
    2.5292   -0.1724   -3.0175 H   0  0  0  0  0  0  0  0  0  0  0  0
    1.1991   -0.8955   -2.1283 H   0  0  0  0  0  0  0  0  0  0  0  0
    1.3023   -3.3105   -1.4059 H   0  0  0  0  0  0  0  0  0  0  0  0
    1.9384   -5.5694   -2.1872 H   0  0  0  0  0  0  0  0  0  0  0  0
    3.6451   -5.8476   -3.9241 H   0  0  0  0  0  0  0  0  0  0  0  0
    4.9363   -6.0103   -5.9272 H   0  0  0  0  0  0  0  0  0  0  0  0
    6.5969   -5.0954   -7.8785 H   0  0  0  0  0  0  0  0  0  0  0  0
    6.8396   -2.3904   -7.3565 H   0  0  0  0  0  0  0  0  0  0  0  0
    4.2169   -1.5749   -4.0642 H   0  0  0  0  0  0  0  0  0  0  0  0
    6.9103    0.2162    0.6611 H   0  0  0  0  0  0  0  0  0  0  0  0
    9.3251    0.3413    1.1891 H   0  0  0  0  0  0  0  0  0  0  0  0
    8.4360    1.1100    5.3062 H   0  0  0  0  0  0  0  0  0  0  0  0
    6.0307    1.0084    4.8447 H   0  0  0  0  0  0  0  0  0  0  0  0
    3.9797    1.0544    4.2953 H   0  0  0  0  0  0  0  0  0  0  0  0
    1.4748    0.9937    3.9627 H   0  0  0  0  0  0  0  0  0  0  0  0
  1  2  2  0  0  0  0
  2  3  1  0  0  0  0
  2 16  1  0  0  0  0
  3  4  1  0  0  0  0
  3 29  1  0  0  0  0
  4  5  1  0  0  0  0
  4 30  1  0  0  0  0
  4 31  1  0  0  0  0
  5  6  2  0  0  0  0
  5 15  1  0  0  0  0
  6  7  1  0  0  0  0
  6 32  1  0  0  0  0
  7  8  2  0  0  0  0
  7 33  1  0  0  0  0
  8  9  1  0  0  0  0
  8 34  1  0  0  0  0
  9 10  1  0  0  0  0
  9 15  2  0  0  0  0
 10 11  2  0  0  0  0
 10 14  1  0  0  0  0
 11 12  1  0  0  0  0
 11 35  1  0  0  0  0
 12 13  2  0  0  0  0
 12 36  1  0  0  0  0
 13 14  1  0  0  0  0
 13 37  1  0  0  0  0
 15 38  1  0  0  0  0
 16 17  2  0  0  0  0
 16 27  1  0  0  0  0
 17 18  1  0  0  0  0
 18 19  1  0  0  0  0
 18 26  1  0  0  0  0
 19 20  2  0  0  0  0
 19 25  1  0  0  0  0
 20 21  1  0  0  0  0
 20 39  1  0  0  0  0
 21 22  2  0  0  0  0
 21 40  1  0  0  0  0
 22 23  1  0  0  0  0
 22 24  1  0  0  0  0
 24 25  2  0  0  0  0
 24 41  1  0  0  0  0
 25 42  1  0  0  0  0
 26 27  2  0  0  0  0
 26 43  1  0  0  0  0
 27 28  1  0  0  0  0
 28 44  1  0  0  0  0
M  END
$$$$
