
 OpenBabel01122422373D

 43 46  0  0  0  0  0  0  0  0999 V2000
    1.3382    0.2617   -0.5211 O   0  0  0  0  0  0  0  0  0  0  0  0
    2.4358    0.0485   -0.0151 C   0  0  0  0  0  0  0  0  0  0  0  0
    2.9273   -1.2234    0.2246 N   0  0  0  0  0  0  0  0  0  0  0  0
    2.2413   -2.4568    0.0292 C   0  0  0  0  0  0  0  0  0  0  0  0
    1.0346   -2.6162   -0.6630 C   0  0  0  0  0  0  0  0  0  0  0  0
    0.3998   -3.8717   -0.7412 C   0  0  0  0  0  0  0  0  0  0  0  0
    0.9395   -5.0090   -0.1226 C   0  0  0  0  0  0  0  0  0  0  0  0
    0.2547   -6.3044   -0.1277 C   0  0  0  0  0  0  0  0  0  0  0  0
   -0.5540   -6.8434   -1.0637 C   0  0  0  0  0  0  0  0  0  0  0  0
   -0.9738   -8.0770   -0.6238 N   0  0  0  0  0  0  0  0  0  0  0  0
   -0.4273   -8.3372    0.6331 C   0  0  0  0  0  0  0  0  0  0  0  0
   -0.5810   -9.3214    1.3313 O   0  0  0  0  0  0  0  0  0  0  0  0
    0.3458   -7.2007    0.9141 N   0  0  0  0  0  0  0  0  0  0  0  0
    2.1729   -4.8463    0.5359 C   0  0  0  0  0  0  0  0  0  0  0  0
    2.8105   -3.6018    0.6013 C   0  0  0  0  0  0  0  0  0  0  0  0
    3.3143    1.0553    0.4199 N   0  0  0  0  0  0  0  0  0  0  0  0
    3.0395    2.4580    0.4185 C   0  0  0  0  0  0  0  0  0  0  0  0
    1.7846    2.9633    0.1123 C   0  0  0  0  0  0  0  0  0  0  0  0
    1.5260    4.3341    0.0730 C   0  0  0  0  0  0  0  0  0  0  0  0
    0.2509    4.6809   -0.1317 F   0  0  0  0  0  0  0  0  0  0  0  0
    2.5306    5.2780    0.2639 C   0  0  0  0  0  0  0  0  0  0  0  0
    2.2864    6.6510   -0.0372 N   0  0  0  0  0  0  0  0  0  0  0  0
    1.1472    7.1976   -0.6061 C   0  0  0  0  0  0  0  0  0  0  0  0
    1.4026    8.5299   -0.8162 C   0  0  0  0  0  0  0  0  0  0  0  0
    2.6484    8.8489   -0.3762 N   0  0  0  0  0  0  0  0  0  0  0  0
    3.1727    7.7112    0.0334 C   0  0  0  0  0  0  0  0  0  0  0  0
    3.7665    4.7821    0.6789 C   0  0  0  0  0  0  0  0  0  0  0  0
    4.7663    5.6098    1.0310 F   0  0  0  0  0  0  0  0  0  0  0  0
    4.0313    3.3909    0.7621 C   0  0  0  0  0  0  0  0  0  0  0  0
    3.8049   -1.2878    0.7173 H   0  0  0  0  0  0  0  0  0  0  0  0
    0.5498   -1.7772   -1.1587 H   0  0  0  0  0  0  0  0  0  0  0  0
   -0.5484   -3.9385   -1.2737 H   0  0  0  0  0  0  0  0  0  0  0  0
   -0.8600   -6.4485   -2.0171 H   0  0  0  0  0  0  0  0  0  0  0  0
   -1.5909   -8.7204   -1.1061 H   0  0  0  0  0  0  0  0  0  0  0  0
    0.8464   -7.0756    1.7795 H   0  0  0  0  0  0  0  0  0  0  0  0
    2.6471   -5.7023    1.0170 H   0  0  0  0  0  0  0  0  0  0  0  0
    3.7543   -3.5397    1.1366 H   0  0  0  0  0  0  0  0  0  0  0  0
    4.2450    0.7724    0.6945 H   0  0  0  0  0  0  0  0  0  0  0  0
    0.9347    2.3246   -0.1027 H   0  0  0  0  0  0  0  0  0  0  0  0
    0.2749    6.6215   -0.8719 H   0  0  0  0  0  0  0  0  0  0  0  0
    0.7566    9.2598   -1.2907 H   0  0  0  0  0  0  0  0  0  0  0  0
    4.1967    7.6094    0.3513 H   0  0  0  0  0  0  0  0  0  0  0  0
    5.0218    3.0807    1.0791 H   0  0  0  0  0  0  0  0  0  0  0  0
  1  2  2  0  0  0  0
  2  3  1  0  0  0  0
  2 16  1  0  0  0  0
  3  4  1  0  0  0  0
  3 30  1  0  0  0  0
  4  5  2  0  0  0  0
  4 15  1  0  0  0  0
  5  6  1  0  0  0  0
  5 31  1  0  0  0  0
  6  7  2  0  0  0  0
  6 32  1  0  0  0  0
  7  8  1  0  0  0  0
  7 14  1  0  0  0  0
  8  9  2  0  0  0  0
  8 13  1  0  0  0  0
  9 10  1  0  0  0  0
  9 33  1  0  0  0  0
 10 11  1  0  0  0  0
 10 34  1  0  0  0  0
 11 12  2  0  0  0  0
 11 13  1  0  0  0  0
 13 35  1  0  0  0  0
 14 15  2  0  0  0  0
 14 36  1  0  0  0  0
 15 37  1  0  0  0  0
 16 17  1  0  0  0  0
 16 38  1  0  0  0  0
 17 18  2  0  0  0  0
 17 29  1  0  0  0  0
 18 19  1  0  0  0  0
 18 39  1  0  0  0  0
 19 20  1  0  0  0  0
 19 21  2  0  0  0  0
 21 22  1  0  0  0  0
 21 27  1  0  0  0  0
 22 23  1  0  0  0  0
 22 26  1  0  0  0  0
 23 24  2  0  0  0  0
 23 40  1  0  0  0  0
 24 25  1  0  0  0  0
 24 41  1  0  0  0  0
 25 26  2  0  0  0  0
 26 42  1  0  0  0  0
 27 28  1  0  0  0  0
 27 29  2  0  0  0  0
 29 43  1  0  0  0  0
M  END
$$$$
