
 OpenBabel01122422373D

 44 47  0  0  0  0  0  0  0  0999 V2000
    7.4267    1.9264   -1.7395 C   0  0  0  0  0  0  0  0  0  0  0  0
    6.4474    1.0774   -1.1541 O   0  0  0  0  0  0  0  0  0  0  0  0
    5.2443    1.6415   -0.8218 C   0  0  0  0  0  0  0  0  0  0  0  0
    4.9225    3.0004   -0.8953 C   0  0  0  0  0  0  0  0  0  0  0  0
    3.6483    3.4850   -0.5184 C   0  0  0  0  0  0  0  0  0  0  0  0
    3.3331    4.9327   -0.6460 C   0  0  0  0  0  0  0  0  0  0  0  0
    4.1804    5.6872   -1.1154 O   0  0  0  0  0  0  0  0  0  0  0  0
    2.1090    5.3774   -0.1501 N   0  0  0  0  0  0  0  0  0  0  0  0
    1.6562    6.6882   -0.2367 C   0  0  0  0  0  0  0  0  0  0  0  0
    1.6182    7.4308   -1.3652 C   0  0  0  0  0  0  0  0  0  0  0  0
    2.0565    6.8439   -2.6970 C   0  0  0  0  0  0  0  0  0  0  0  0
    2.4201    6.3570   -3.8019 N   0  0  0  0  0  0  0  0  0  0  0  0
    1.2354    8.8632   -1.3364 C   0  0  0  0  0  0  0  0  0  0  0  0
    1.1749    9.4867   -2.3956 O   0  0  0  0  0  0  0  0  0  0  0  0
    0.9308    9.3899   -0.0649 N   0  0  0  0  0  0  0  0  0  0  0  0
    0.5705   10.7707    0.0137 C   0  0  0  0  0  0  0  0  0  0  0  0
   -0.5802   11.1575    0.7106 C   0  0  0  0  0  0  0  0  0  0  0  0
   -0.9920   12.4908    0.6992 C   0  0  0  0  0  0  0  0  0  0  0  0
   -0.2335   13.4517    0.0318 C   0  0  0  0  0  0  0  0  0  0  0  0
    0.9388   13.0845   -0.6237 C   0  0  0  0  0  0  0  0  0  0  0  0
    1.3347   11.7472   -0.6411 C   0  0  0  0  0  0  0  0  0  0  0  0
    0.9045    8.5781    1.0621 C   0  0  0  0  0  0  0  0  0  0  0  0
    1.2188    7.2787    1.0074 C   0  0  0  0  0  0  0  0  0  0  0  0
    2.7369    2.5307   -0.0658 C   0  0  0  0  0  0  0  0  0  0  0  0
    1.4560    2.7565    0.3621 O   0  0  0  0  0  0  0  0  0  0  0  0
    0.9202    1.5523    0.6870 C   0  0  0  0  0  0  0  0  0  0  0  0
    1.8406    0.5475    0.4965 C   0  0  0  0  0  0  0  0  0  0  0  0
    3.0191    1.1702    0.0162 C   0  0  0  0  0  0  0  0  0  0  0  0
    4.2952    0.7163   -0.3649 C   0  0  0  0  0  0  0  0  0  0  0  0
    8.2985    1.3101   -1.9815 H   0  0  0  0  0  0  0  0  0  0  0  0
    7.7505    2.6979   -1.0340 H   0  0  0  0  0  0  0  0  0  0  0  0
    7.0603    2.3668   -2.6721 H   0  0  0  0  0  0  0  0  0  0  0  0
    5.6527    3.7235   -1.2521 H   0  0  0  0  0  0  0  0  0  0  0  0
    1.6927    4.7775    0.5576 H   0  0  0  0  0  0  0  0  0  0  0  0
   -1.2094   10.4174    1.1969 H   0  0  0  0  0  0  0  0  0  0  0  0
   -1.9203   12.7736    1.1864 H   0  0  0  0  0  0  0  0  0  0  0  0
   -0.5634   14.4868    0.0112 H   0  0  0  0  0  0  0  0  0  0  0  0
    1.5362   13.8315   -1.1401 H   0  0  0  0  0  0  0  0  0  0  0  0
    2.2476   11.4774   -1.1683 H   0  0  0  0  0  0  0  0  0  0  0  0
    0.6662    9.0508    2.0112 H   0  0  0  0  0  0  0  0  0  0  0  0
    1.2389    6.6857    1.9167 H   0  0  0  0  0  0  0  0  0  0  0  0
   -0.1055    1.5705    1.0293 H   0  0  0  0  0  0  0  0  0  0  0  0
    1.6773   -0.5078    0.6757 H   0  0  0  0  0  0  0  0  0  0  0  0
    4.5463   -0.3386   -0.3127 H   0  0  0  0  0  0  0  0  0  0  0  0
  1  2  1  0  0  0  0
  1 30  1  0  0  0  0
  1 31  1  0  0  0  0
  1 32  1  0  0  0  0
  2  3  1  0  0  0  0
  3  4  2  0  0  0  0
  3 29  1  0  0  0  0
  4  5  1  0  0  0  0
  4 33  1  0  0  0  0
  5  6  1  0  0  0  0
  5 24  2  0  0  0  0
  6  7  2  0  0  0  0
  6  8  1  0  0  0  0
  8  9  1  0  0  0  0
  8 34  1  0  0  0  0
  9 10  2  0  0  0  0
  9 23  1  0  0  0  0
 10 11  1  0  0  0  0
 10 13  1  0  0  0  0
 11 12  3  0  0  0  0
 13 14  2  0  0  0  0
 13 15  1  0  0  0  0
 15 16  1  0  0  0  0
 15 22  1  0  0  0  0
 16 17  2  0  0  0  0
 16 21  1  0  0  0  0
 17 18  1  0  0  0  0
 17 35  1  0  0  0  0
 18 19  2  0  0  0  0
 18 36  1  0  0  0  0
 19 20  1  0  0  0  0
 19 37  1  0  0  0  0
 20 21  2  0  0  0  0
 20 38  1  0  0  0  0
 21 39  1  0  0  0  0
 22 23  2  0  0  0  0
 22 40  1  0  0  0  0
 23 41  1  0  0  0  0
 24 25  1  0  0  0  0
 24 28  1  0  0  0  0
 25 26  1  0  0  0  0
 26 27  2  0  0  0  0
 26 42  1  0  0  0  0
 27 28  1  0  0  0  0
 27 43  1  0  0  0  0
 28 29  2  0  0  0  0
 29 44  1  0  0  0  0
M  END
$$$$
