
 OpenBabel01122422373D

 43 46  0  0  0  0  0  0  0  0999 V2000
    1.1061   -0.0024    0.0033 O   0  0  0  0  0  0  0  0  0  0  0  0
    2.3257    0.0578    0.0476 C   0  0  0  0  0  0  0  0  0  0  0  0
    3.1081    0.8297   -0.7359 O   0  0  0  0  0  0  0  0  0  0  0  0
    2.4991    1.2362   -1.9776 C   0  0  0  0  0  0  0  0  0  0  0  0
    2.8164    0.1746   -2.9807 C   0  0  0  0  0  0  0  0  0  0  0  0
    3.5216   -0.9241   -2.7535 N   0  0  0  0  0  0  0  0  0  0  0  0
    3.2320   -1.7111   -3.8180 C   0  0  0  0  0  0  0  0  0  0  0  0
    2.4013   -1.1773   -4.7125 N   0  0  0  0  0  0  0  0  0  0  0  0
    2.2289    0.0802   -4.2326 N   0  0  0  0  0  0  0  0  0  0  0  0
    1.5330    1.0569   -4.9865 C   0  0  0  0  0  0  0  0  0  0  0  0
    0.5163    0.6531   -5.8625 C   0  0  0  0  0  0  0  0  0  0  0  0
   -0.1951    1.6088   -6.5908 C   0  0  0  0  0  0  0  0  0  0  0  0
    0.1320    2.9602   -6.4787 C   0  0  0  0  0  0  0  0  0  0  0  0
    1.1713    3.3599   -5.6409 C   0  0  0  0  0  0  0  0  0  0  0  0
    1.8714    2.4126   -4.8918 C   0  0  0  0  0  0  0  0  0  0  0  0
    3.1544   -0.8514    0.8924 C   0  0  0  0  0  0  0  0  0  0  0  0
    2.4811   -1.8234    1.6540 C   0  0  0  0  0  0  0  0  0  0  0  0
    3.1739   -2.8293    2.3550 C   0  0  0  0  0  0  0  0  0  0  0  0
    2.4702   -3.8740    3.1249 C   0  0  0  0  0  0  0  0  0  0  0  0
    1.1988   -4.3394    2.7809 C   0  0  0  0  0  0  0  0  0  0  0  0
    0.5918   -5.3174    3.5622 C   0  0  0  0  0  0  0  0  0  0  0  0
    1.2614   -5.8133    4.6707 C   0  0  0  0  0  0  0  0  0  0  0  0
    2.5199   -5.3104    4.9474 C   0  0  0  0  0  0  0  0  0  0  0  0
    3.1351   -4.3649    4.2024 N   0  0  0  0  0  0  0  0  0  0  0  0
    4.5785   -2.8139    2.2764 C   0  0  0  0  0  0  0  0  0  0  0  0
    5.2434   -1.8265    1.5590 C   0  0  0  0  0  0  0  0  0  0  0  0
    6.5823   -1.8506    1.4949 F   0  0  0  0  0  0  0  0  0  0  0  0
    4.5495   -0.8306    0.8824 C   0  0  0  0  0  0  0  0  0  0  0  0
    2.9450    2.1949   -2.2473 H   0  0  0  0  0  0  0  0  0  0  0  0
    1.4151    1.3792   -1.8831 H   0  0  0  0  0  0  0  0  0  0  0  0
    3.6207   -2.7135   -3.9341 H   0  0  0  0  0  0  0  0  0  0  0  0
    0.2442   -0.3970   -5.9592 H   0  0  0  0  0  0  0  0  0  0  0  0
   -1.0072    1.3001   -7.2442 H   0  0  0  0  0  0  0  0  0  0  0  0
   -0.4151    3.7018   -7.0557 H   0  0  0  0  0  0  0  0  0  0  0  0
    1.4467    4.4103   -5.5812 H   0  0  0  0  0  0  0  0  0  0  0  0
    2.7164    2.7563   -4.3042 H   0  0  0  0  0  0  0  0  0  0  0  0
    1.3928   -1.7967    1.6760 H   0  0  0  0  0  0  0  0  0  0  0  0
    0.6797   -3.9649    1.9027 H   0  0  0  0  0  0  0  0  0  0  0  0
   -0.3956   -5.6882    3.3029 H   0  0  0  0  0  0  0  0  0  0  0  0
    0.8164   -6.5749    5.3001 H   0  0  0  0  0  0  0  0  0  0  0  0
    3.0890   -5.6668    5.8014 H   0  0  0  0  0  0  0  0  0  0  0  0
    5.1626   -3.5886    2.7690 H   0  0  0  0  0  0  0  0  0  0  0  0
    5.1094   -0.0830    0.3281 H   0  0  0  0  0  0  0  0  0  0  0  0
  1  2  2  0  0  0  0
  2  3  1  0  0  0  0
  2 16  1  0  0  0  0
  3  4  1  0  0  0  0
  4  5  1  0  0  0  0
  4 29  1  0  0  0  0
  4 30  1  0  0  0  0
  5  6  2  0  0  0  0
  5  9  1  0  0  0  0
  6  7  1  0  0  0  0
  7  8  2  0  0  0  0
  7 31  1  0  0  0  0
  8  9  1  0  0  0  0
  9 10  1  0  0  0  0
 10 11  2  0  0  0  0
 10 15  1  0  0  0  0
 11 12  1  0  0  0  0
 11 32  1  0  0  0  0
 12 13  2  0  0  0  0
 12 33  1  0  0  0  0
 13 14  1  0  0  0  0
 13 34  1  0  0  0  0
 14 15  2  0  0  0  0
 14 35  1  0  0  0  0
 15 36  1  0  0  0  0
 16 17  2  0  0  0  0
 16 28  1  0  0  0  0
 17 18  1  0  0  0  0
 17 37  1  0  0  0  0
 18 19  1  0  0  0  0
 18 25  2  0  0  0  0
 19 20  2  0  0  0  0
 19 24  1  0  0  0  0
 20 21  1  0  0  0  0
 20 38  1  0  0  0  0
 21 22  2  0  0  0  0
 21 39  1  0  0  0  0
 22 23  1  0  0  0  0
 22 40  1  0  0  0  0
 23 24  2  0  0  0  0
 23 41  1  0  0  0  0
 25 26  1  0  0  0  0
 25 42  1  0  0  0  0
 26 27  1  0  0  0  0
 26 28  2  0  0  0  0
 28 43  1  0  0  0  0
M  END
$$$$
