
 OpenBabel01122422373D

 47 50  0  0  0  0  0  0  0  0999 V2000
    0.6069   -0.0150   -0.5073 O   0  0  0  0  0  0  0  0  0  0  0  0
    0.4153   -0.2295   -1.7028 C   0  0  0  0  0  0  0  0  0  0  0  0
    1.3022   -0.9769   -2.4416 N   0  0  0  0  0  0  0  0  0  0  0  0
    2.4379   -1.5477   -1.7466 C   0  0  0  0  0  0  0  0  0  0  0  0
    3.3520   -2.3257   -2.6461 C   0  0  0  0  0  0  0  0  0  0  0  0
    4.3608   -1.6542   -3.3376 C   0  0  0  0  0  0  0  0  0  0  0  0
    5.2489   -2.3534   -4.1545 C   0  0  0  0  0  0  0  0  0  0  0  0
    5.1531   -3.7378   -4.3061 C   0  0  0  0  0  0  0  0  0  0  0  0
    6.0354   -4.4938   -5.1217 N   0  0  0  0  0  0  0  0  0  0  0  0
    7.1060   -3.9853   -5.8421 C   0  0  0  0  0  0  0  0  0  0  0  0
    7.4749   -2.8174   -5.8586 O   0  0  0  0  0  0  0  0  0  0  0  0
    7.8928   -4.9380   -6.6583 C   0  0  0  0  0  0  0  0  0  0  0  0
    7.4060   -6.1393   -7.1726 C   0  0  0  0  0  0  0  0  0  0  0  0
    8.2338   -6.9160   -7.9866 C   0  0  0  0  0  0  0  0  0  0  0  0
    9.5191   -6.4664   -8.2541 C   0  0  0  0  0  0  0  0  0  0  0  0
   10.0216   -5.3115   -7.7728 N   0  0  0  0  0  0  0  0  0  0  0  0
    9.1952   -4.5709   -6.9936 C   0  0  0  0  0  0  0  0  0  0  0  0
    4.1353   -4.4132   -3.6209 C   0  0  0  0  0  0  0  0  0  0  0  0
    3.2374   -3.7126   -2.8012 C   0  0  0  0  0  0  0  0  0  0  0  0
   -0.8384    0.2948   -2.3339 C   0  0  0  0  0  0  0  0  0  0  0  0
   -1.7327    0.9329   -1.4532 C   0  0  0  0  0  0  0  0  0  0  0  0
   -3.0028    1.3248   -1.8674 C   0  0  0  0  0  0  0  0  0  0  0  0
   -3.3476    1.1439   -3.1969 C   0  0  0  0  0  0  0  0  0  0  0  0
   -4.6898    1.4672   -3.6678 C   0  0  0  0  0  0  0  0  0  0  0  0
   -4.9899    1.6103   -4.9195 N   0  0  0  0  0  0  0  0  0  0  0  0
   -3.9883    1.3864   -5.8227 N   0  0  0  0  0  0  0  0  0  0  0  0
   -2.7768    0.7821   -5.5451 C   0  0  0  0  0  0  0  0  0  0  0  0
   -1.9942    0.4263   -6.4191 O   0  0  0  0  0  0  0  0  0  0  0  0
   -2.4257    0.6590   -4.1176 C   0  0  0  0  0  0  0  0  0  0  0  0
   -1.1747    0.1772   -3.6873 C   0  0  0  0  0  0  0  0  0  0  0  0
    1.2201   -1.1131   -3.4404 H   0  0  0  0  0  0  0  0  0  0  0  0
    2.0695   -2.1819   -0.9307 H   0  0  0  0  0  0  0  0  0  0  0  0
    2.9939   -0.7286   -1.2717 H   0  0  0  0  0  0  0  0  0  0  0  0
    4.4807   -0.5780   -3.2314 H   0  0  0  0  0  0  0  0  0  0  0  0
    6.0134   -1.7670   -4.6513 H   0  0  0  0  0  0  0  0  0  0  0  0
    5.8828   -5.4937   -5.1267 H   0  0  0  0  0  0  0  0  0  0  0  0
    6.3877   -6.4702   -6.9937 H   0  0  0  0  0  0  0  0  0  0  0  0
    7.8832   -7.8469   -8.4176 H   0  0  0  0  0  0  0  0  0  0  0  0
   10.1896   -7.0254   -8.9008 H   0  0  0  0  0  0  0  0  0  0  0  0
    9.6272   -3.6373   -6.6378 H   0  0  0  0  0  0  0  0  0  0  0  0
    4.0247   -5.4910   -3.7056 H   0  0  0  0  0  0  0  0  0  0  0  0
    2.4596   -4.2594   -2.2708 H   0  0  0  0  0  0  0  0  0  0  0  0
   -1.4462    1.1087   -0.4168 H   0  0  0  0  0  0  0  0  0  0  0  0
   -3.6857    1.7843   -1.1592 H   0  0  0  0  0  0  0  0  0  0  0  0
   -5.4870    1.5816   -2.9128 H   0  0  0  0  0  0  0  0  0  0  0  0
   -4.2215    1.5569   -6.7962 H   0  0  0  0  0  0  0  0  0  0  0  0
   -0.4984   -0.2563   -4.4189 H   0  0  0  0  0  0  0  0  0  0  0  0
  1  2  2  0  0  0  0
  2  3  1  0  0  0  0
  2 20  1  0  0  0  0
  3  4  1  0  0  0  0
  3 31  1  0  0  0  0
  4  5  1  0  0  0  0
  4 32  1  0  0  0  0
  4 33  1  0  0  0  0
  5  6  2  0  0  0  0
  5 19  1  0  0  0  0
  6  7  1  0  0  0  0
  6 34  1  0  0  0  0
  7  8  2  0  0  0  0
  7 35  1  0  0  0  0
  8  9  1  0  0  0  0
  8 18  1  0  0  0  0
  9 10  1  0  0  0  0
  9 36  1  0  0  0  0
 10 11  2  0  0  0  0
 10 12  1  0  0  0  0
 12 13  2  0  0  0  0
 12 17  1  0  0  0  0
 13 14  1  0  0  0  0
 13 37  1  0  0  0  0
 14 15  2  0  0  0  0
 14 38  1  0  0  0  0
 15 16  1  0  0  0  0
 15 39  1  0  0  0  0
 16 17  2  0  0  0  0
 17 40  1  0  0  0  0
 18 19  2  0  0  0  0
 18 41  1  0  0  0  0
 19 42  1  0  0  0  0
 20 21  2  0  0  0  0
 20 30  1  0  0  0  0
 21 22  1  0  0  0  0
 21 43  1  0  0  0  0
 22 23  2  0  0  0  0
 22 44  1  0  0  0  0
 23 24  1  0  0  0  0
 23 29  1  0  0  0  0
 24 25  2  0  0  0  0
 24 45  1  0  0  0  0
 25 26  1  0  0  0  0
 26 27  1  0  0  0  0
 26 46  1  0  0  0  0
 27 28  2  0  0  0  0
 27 29  1  0  0  0  0
 29 30  2  0  0  0  0
 30 47  1  0  0  0  0
M  END
$$$$
