
 OpenBabel01122422373D

 53 56  0  0  0  0  0  0  0  0999 V2000
    1.1670    0.2863   -0.4401 C   0  0  0  0  0  0  0  0  0  0  0  0
    2.6049    0.1152   -0.2596 N   0  0  0  0  0  0  0  0  0  0  0  0
    3.1200   -1.1774    0.1874 C   0  0  0  0  0  0  0  0  0  0  0  0
    2.1662   -2.3163    0.4416 C   0  0  0  0  0  0  0  0  0  0  0  0
    1.6512   -2.5494    1.7224 C   0  0  0  0  0  0  0  0  0  0  0  0
    0.8870   -3.6906    1.9734 C   0  0  0  0  0  0  0  0  0  0  0  0
    0.6298   -4.6032    0.9482 C   0  0  0  0  0  0  0  0  0  0  0  0
    1.1379   -4.3750   -0.3286 C   0  0  0  0  0  0  0  0  0  0  0  0
    0.9458   -5.3428   -1.3462 N   0  0  0  0  0  0  0  0  0  0  0  0
   -0.4777   -5.3614   -2.2373 S   0  0  0  0  0  0  0  0  0  0  0  0
   -0.3464   -6.4642   -3.1740 O   0  0  0  0  0  0  0  0  0  0  0  0
   -1.6112   -5.2741   -1.3388 O   0  0  0  0  0  0  0  0  0  0  0  0
   -0.3990   -3.8576   -3.1901 C   0  0  0  0  0  0  0  0  0  0  0  0
    0.2223   -3.8725   -4.4457 C   0  0  0  0  0  0  0  0  0  0  0  0
    0.1971   -2.7271   -5.2419 C   0  0  0  0  0  0  0  0  0  0  0  0
   -0.4522   -1.5774   -4.7907 C   0  0  0  0  0  0  0  0  0  0  0  0
   -1.0755   -1.5678   -3.5411 C   0  0  0  0  0  0  0  0  0  0  0  0
   -1.0566   -2.7102   -2.7387 C   0  0  0  0  0  0  0  0  0  0  0  0
    1.8821   -3.2294   -0.5901 C   0  0  0  0  0  0  0  0  0  0  0  0
    3.3794    1.2927   -0.2752 C   0  0  0  0  0  0  0  0  0  0  0  0
    2.8632    2.4008   -0.4317 O   0  0  0  0  0  0  0  0  0  0  0  0
    4.8633    1.2735   -0.0725 C   0  0  0  0  0  0  0  0  0  0  0  0
    5.6972    0.2586   -0.5369 C   0  0  0  0  0  0  0  0  0  0  0  0
    7.0486    0.3251   -0.2559 C   0  0  0  0  0  0  0  0  0  0  0  0
    7.6269    1.3588    0.3772 N   0  0  0  0  0  0  0  0  0  0  0  0
    6.8285    2.3962    0.7394 C   0  0  0  0  0  0  0  0  0  0  0  0
    7.5179    3.5493    1.3307 C   0  0  0  0  0  0  0  0  0  0  0  0
    6.8846    4.6785    1.6987 N   0  0  0  0  0  0  0  0  0  0  0  0
    7.8595    5.4752    2.1642 N   0  0  0  0  0  0  0  0  0  0  0  0
    9.0963    4.9096    2.1269 C   0  0  0  0  0  0  0  0  0  0  0  0
    8.9146    3.6610    1.5861 C   0  0  0  0  0  0  0  0  0  0  0  0
    5.4513    2.3835    0.5461 C   0  0  0  0  0  0  0  0  0  0  0  0
    0.7312   -0.5834   -0.9350 H   0  0  0  0  0  0  0  0  0  0  0  0
    0.9528    1.1579   -1.0672 H   0  0  0  0  0  0  0  0  0  0  0  0
    0.7038    0.4408    0.5391 H   0  0  0  0  0  0  0  0  0  0  0  0
    3.7539   -1.0255    1.0685 H   0  0  0  0  0  0  0  0  0  0  0  0
    3.7682   -1.5373   -0.6134 H   0  0  0  0  0  0  0  0  0  0  0  0
    1.8736   -1.8649    2.5392 H   0  0  0  0  0  0  0  0  0  0  0  0
    0.5159   -3.8859    2.9770 H   0  0  0  0  0  0  0  0  0  0  0  0
    0.0612   -5.5057    1.1598 H   0  0  0  0  0  0  0  0  0  0  0  0
    1.7576   -5.6556   -1.8736 H   0  0  0  0  0  0  0  0  0  0  0  0
    0.7012   -4.7741   -4.8211 H   0  0  0  0  0  0  0  0  0  0  0  0
    0.6610   -2.7364   -6.2260 H   0  0  0  0  0  0  0  0  0  0  0  0
   -0.4892   -0.6921   -5.4223 H   0  0  0  0  0  0  0  0  0  0  0  0
   -1.5948   -0.6735   -3.2038 H   0  0  0  0  0  0  0  0  0  0  0  0
   -1.5672   -2.7039   -1.7779 H   0  0  0  0  0  0  0  0  0  0  0  0
    2.2779   -3.0565   -1.5882 H   0  0  0  0  0  0  0  0  0  0  0  0
    5.3453   -0.5654   -1.1369 H   0  0  0  0  0  0  0  0  0  0  0  0
    7.7238   -0.4708   -0.5579 H   0  0  0  0  0  0  0  0  0  0  0  0
    7.6045    6.3990    2.4962 H   0  0  0  0  0  0  0  0  0  0  0  0
    9.9758    5.4312    2.4739 H   0  0  0  0  0  0  0  0  0  0  0  0
    9.6723    2.9146    1.3909 H   0  0  0  0  0  0  0  0  0  0  0  0
    4.8474    3.2343    0.8520 H   0  0  0  0  0  0  0  0  0  0  0  0
  1  2  1  0  0  0  0
  1 33  1  0  0  0  0
  1 34  1  0  0  0  0
  1 35  1  0  0  0  0
  2  3  1  0  0  0  0
  2 20  1  0  0  0  0
  3  4  1  0  0  0  0
  3 36  1  0  0  0  0
  3 37  1  0  0  0  0
  4  5  2  0  0  0  0
  4 19  1  0  0  0  0
  5  6  1  0  0  0  0
  5 38  1  0  0  0  0
  6  7  2  0  0  0  0
  6 39  1  0  0  0  0
  7  8  1  0  0  0  0
  7 40  1  0  0  0  0
  8  9  1  0  0  0  0
  8 19  2  0  0  0  0
  9 10  1  0  0  0  0
  9 41  1  0  0  0  0
 10 11  2  0  0  0  0
 10 12  2  0  0  0  0
 10 13  1  0  0  0  0
 13 14  2  0  0  0  0
 13 18  1  0  0  0  0
 14 15  1  0  0  0  0
 14 42  1  0  0  0  0
 15 16  2  0  0  0  0
 15 43  1  0  0  0  0
 16 17  1  0  0  0  0
 16 44  1  0  0  0  0
 17 18  2  0  0  0  0
 17 45  1  0  0  0  0
 18 46  1  0  0  0  0
 19 47  1  0  0  0  0
 20 21  2  0  0  0  0
 20 22  1  0  0  0  0
 22 23  2  0  0  0  0
 22 32  1  0  0  0  0
 23 24  1  0  0  0  0
 23 48  1  0  0  0  0
 24 25  2  0  0  0  0
 24 49  1  0  0  0  0
 25 26  1  0  0  0  0
 26 27  1  0  0  0  0
 26 32  2  0  0  0  0
 27 28  2  0  0  0  0
 27 31  1  0  0  0  0
 28 29  1  0  0  0  0
 29 30  1  0  0  0  0
 29 50  1  0  0  0  0
 30 31  2  0  0  0  0
 30 51  1  0  0  0  0
 31 52  1  0  0  0  0
 32 53  1  0  0  0  0
M  END
$$$$
