
 OpenBabel01122422373D

 46 49  0  0  0  0  0  0  0  0999 V2000
    5.3364    7.1275    3.3353 C   0  0  0  0  0  0  0  0  0  0  0  0
    5.3281    6.4080    2.0392 C   0  0  0  0  0  0  0  0  0  0  0  0
    5.5791    5.0965    1.9909 N   0  0  0  0  0  0  0  0  0  0  0  0
    5.5465    4.7762    0.6753 N   0  0  0  0  0  0  0  0  0  0  0  0
    5.8700    3.4665    0.2237 C   0  0  0  0  0  0  0  0  0  0  0  0
    6.5028    3.3396   -1.0294 C   0  0  0  0  0  0  0  0  0  0  0  0
    6.9483    2.0961   -1.4756 C   0  0  0  0  0  0  0  0  0  0  0  0
    6.7651    0.9711   -0.6817 C   0  0  0  0  0  0  0  0  0  0  0  0
    6.1128    1.0821    0.5477 C   0  0  0  0  0  0  0  0  0  0  0  0
    5.6208    2.3195    1.0150 C   0  0  0  0  0  0  0  0  0  0  0  0
    4.8505    2.3588    2.3248 C   0  0  0  0  0  0  0  0  0  0  0  0
    4.0435    1.1681    2.5212 N   0  0  0  0  0  0  0  0  0  0  0  0
    3.7773    0.6368    3.7636 C   0  0  0  0  0  0  0  0  0  0  0  0
    4.2012    1.1125    4.8118 O   0  0  0  0  0  0  0  0  0  0  0  0
    2.9442   -0.5718    3.7366 C   0  0  0  0  0  0  0  0  0  0  0  0
    2.5245   -1.1229    2.5841 N   0  0  0  0  0  0  0  0  0  0  0  0
    1.8036   -2.2459    2.9416 O   0  0  0  0  0  0  0  0  0  0  0  0
    1.7711   -2.3769    4.3011 C   0  0  0  0  0  0  0  0  0  0  0  0
    1.0219   -3.5210    4.8221 C   0  0  0  0  0  0  0  0  0  0  0  0
    0.4007   -4.4394    3.9572 C   0  0  0  0  0  0  0  0  0  0  0  0
   -0.3421   -5.5212    4.4548 C   0  0  0  0  0  0  0  0  0  0  0  0
   -0.4788   -5.7114    5.8334 C   0  0  0  0  0  0  0  0  0  0  0  0
   -1.2523   -6.8076    6.3437 C   0  0  0  0  0  0  0  0  0  0  0  0
   -1.8824   -7.6955    6.7490 N   0  0  0  0  0  0  0  0  0  0  0  0
    0.1418   -4.8163    6.7060 C   0  0  0  0  0  0  0  0  0  0  0  0
    0.8801   -3.7408    6.1980 C   0  0  0  0  0  0  0  0  0  0  0  0
    1.4513   -2.9107    7.0844 F   0  0  0  0  0  0  0  0  0  0  0  0
    2.4836   -1.3325    4.8453 C   0  0  0  0  0  0  0  0  0  0  0  0
    5.2412    5.8765   -0.0977 C   0  0  0  0  0  0  0  0  0  0  0  0
    5.0654    6.9352    0.7598 C   0  0  0  0  0  0  0  0  0  0  0  0
    5.7705    6.5146    4.1323 H   0  0  0  0  0  0  0  0  0  0  0  0
    4.3172    7.3980    3.6267 H   0  0  0  0  0  0  0  0  0  0  0  0
    5.9299    8.0446    3.2589 H   0  0  0  0  0  0  0  0  0  0  0  0
    6.7220    4.2076   -1.6472 H   0  0  0  0  0  0  0  0  0  0  0  0
    7.4650    2.0111   -2.4284 H   0  0  0  0  0  0  0  0  0  0  0  0
    7.1310    0.0031   -1.0152 H   0  0  0  0  0  0  0  0  0  0  0  0
    5.9835    0.1805    1.1448 H   0  0  0  0  0  0  0  0  0  0  0  0
    4.1209    3.1735    2.3306 H   0  0  0  0  0  0  0  0  0  0  0  0
    5.5454    2.4861    3.1612 H   0  0  0  0  0  0  0  0  0  0  0  0
    3.5209    0.7932    1.7371 H   0  0  0  0  0  0  0  0  0  0  0  0
    0.4809   -4.3234    2.8769 H   0  0  0  0  0  0  0  0  0  0  0  0
   -0.8160   -6.2069    3.7531 H   0  0  0  0  0  0  0  0  0  0  0  0
    0.0583   -4.9349    7.7837 H   0  0  0  0  0  0  0  0  0  0  0  0
    2.6631   -1.1272    5.8910 H   0  0  0  0  0  0  0  0  0  0  0  0
    5.1317    5.8039   -1.1695 H   0  0  0  0  0  0  0  0  0  0  0  0
    4.7938    7.9481    0.4981 H   0  0  0  0  0  0  0  0  0  0  0  0
  1  2  1  0  0  0  0
  1 31  1  0  0  0  0
  1 32  1  0  0  0  0
  1 33  1  0  0  0  0
  2  3  2  0  0  0  0
  2 30  1  0  0  0  0
  3  4  1  0  0  0  0
  4  5  1  0  0  0  0
  4 29  1  0  0  0  0
  5  6  2  0  0  0  0
  5 10  1  0  0  0  0
  6  7  1  0  0  0  0
  6 34  1  0  0  0  0
  7  8  2  0  0  0  0
  7 35  1  0  0  0  0
  8  9  1  0  0  0  0
  8 36  1  0  0  0  0
  9 10  2  0  0  0  0
  9 37  1  0  0  0  0
 10 11  1  0  0  0  0
 11 12  1  0  0  0  0
 11 38  1  0  0  0  0
 11 39  1  0  0  0  0
 12 13  1  0  0  0  0
 12 40  1  0  0  0  0
 13 14  2  0  0  0  0
 13 15  1  0  0  0  0
 15 16  2  0  0  0  0
 15 28  1  0  0  0  0
 16 17  1  0  0  0  0
 17 18  1  0  0  0  0
 18 19  1  0  0  0  0
 18 28  2  0  0  0  0
 19 20  2  0  0  0  0
 19 26  1  0  0  0  0
 20 21  1  0  0  0  0
 20 41  1  0  0  0  0
 21 22  2  0  0  0  0
 21 42  1  0  0  0  0
 22 23  1  0  0  0  0
 22 25  1  0  0  0  0
 23 24  3  0  0  0  0
 25 26  2  0  0  0  0
 25 43  1  0  0  0  0
 26 27  1  0  0  0  0
 28 44  1  0  0  0  0
 29 30  2  0  0  0  0
 29 45  1  0  0  0  0
 30 46  1  0  0  0  0
M  END
$$$$
