
 OpenBabel01122422373D

 42 45  0  0  0  0  0  0  0  0999 V2000
    1.5754    0.6715   -0.6039 O   0  0  0  0  0  0  0  0  0  0  0  0
    2.5413    0.0744   -0.1191 C   0  0  0  0  0  0  0  0  0  0  0  0
    2.9110    0.4882    1.2646 C   0  0  0  0  0  0  0  0  0  0  0  0
    2.7577    1.8398    1.6084 C   0  0  0  0  0  0  0  0  0  0  0  0
    2.2155    2.7278    0.7590 F   0  0  0  0  0  0  0  0  0  0  0  0
    3.1861    2.3225    2.8428 C   0  0  0  0  0  0  0  0  0  0  0  0
    3.0032    3.6379    3.1711 O   0  0  0  0  0  0  0  0  0  0  0  0
    3.8105    1.4640    3.7347 C   0  0  0  0  0  0  0  0  0  0  0  0
    4.3180    1.9244    4.8859 F   0  0  0  0  0  0  0  0  0  0  0  0
    3.9063    0.1067    3.4472 C   0  0  0  0  0  0  0  0  0  0  0  0
    3.3913   -0.3915    2.2439 C   0  0  0  0  0  0  0  0  0  0  0  0
    3.1947   -0.9424   -0.8451 N   0  0  0  0  0  0  0  0  0  0  0  0
    2.6803   -1.2164   -2.1923 C   0  0  0  0  0  0  0  0  0  0  0  0
    2.4502   -2.6876   -2.4862 C   0  0  0  0  0  0  0  0  0  0  0  0
    1.6506   -3.0194   -3.3616 O   0  0  0  0  0  0  0  0  0  0  0  0
    3.2991   -3.5680   -1.8133 N   0  0  0  0  0  0  0  0  0  0  0  0
    3.1900   -4.9651   -2.0511 C   0  0  0  0  0  0  0  0  0  0  0  0
    3.3389   -5.4849   -3.3425 C   0  0  0  0  0  0  0  0  0  0  0  0
    3.3090   -6.8654   -3.5491 C   0  0  0  0  0  0  0  0  0  0  0  0
    3.0937   -7.7293   -2.4750 C   0  0  0  0  0  0  0  0  0  0  0  0
    2.8945   -7.2167   -1.1950 C   0  0  0  0  0  0  0  0  0  0  0  0
    2.9410   -5.8395   -0.9831 C   0  0  0  0  0  0  0  0  0  0  0  0
    4.3239   -3.0968   -0.9248 C   0  0  0  0  0  0  0  0  0  0  0  0
    5.3667   -3.9413   -0.4924 C   0  0  0  0  0  0  0  0  0  0  0  0
    6.3454   -3.4878    0.3879 C   0  0  0  0  0  0  0  0  0  0  0  0
    6.3522   -2.1584    0.7757 C   0  0  0  0  0  0  0  0  0  0  0  0
    5.3707   -1.2854    0.2994 C   0  0  0  0  0  0  0  0  0  0  0  0
    4.3096   -1.7532   -0.4851 C   0  0  0  0  0  0  0  0  0  0  0  0
    2.4468    4.0382    2.4753 H   0  0  0  0  0  0  0  0  0  0  0  0
    4.3900   -0.5559    4.1596 H   0  0  0  0  0  0  0  0  0  0  0  0
    3.4270   -1.4632    2.0681 H   0  0  0  0  0  0  0  0  0  0  0  0
    3.4113   -0.8273   -2.9126 H   0  0  0  0  0  0  0  0  0  0  0  0
    1.7323   -0.7017   -2.3728 H   0  0  0  0  0  0  0  0  0  0  0  0
    3.5128   -4.8236   -4.1887 H   0  0  0  0  0  0  0  0  0  0  0  0
    3.4566   -7.2667   -4.5485 H   0  0  0  0  0  0  0  0  0  0  0  0
    3.0711   -8.8036   -2.6388 H   0  0  0  0  0  0  0  0  0  0  0  0
    2.7037   -7.8877   -0.3612 H   0  0  0  0  0  0  0  0  0  0  0  0
    2.7744   -5.4483    0.0175 H   0  0  0  0  0  0  0  0  0  0  0  0
    5.4446   -4.9686   -0.8365 H   0  0  0  0  0  0  0  0  0  0  0  0
    7.1084   -4.1751    0.7432 H   0  0  0  0  0  0  0  0  0  0  0  0
    7.1259   -1.7983    1.4490 H   0  0  0  0  0  0  0  0  0  0  0  0
    5.4528   -0.2366    0.5695 H   0  0  0  0  0  0  0  0  0  0  0  0
  1  2  2  0  0  0  0
  2  3  1  0  0  0  0
  2 12  1  0  0  0  0
  3  4  2  0  0  0  0
  3 11  1  0  0  0  0
  4  5  1  0  0  0  0
  4  6  1  0  0  0  0
  6  7  1  0  0  0  0
  6  8  2  0  0  0  0
  7 29  1  0  0  0  0
  8  9  1  0  0  0  0
  8 10  1  0  0  0  0
 10 11  2  0  0  0  0
 10 30  1  0  0  0  0
 11 31  1  0  0  0  0
 12 13  1  0  0  0  0
 12 28  1  0  0  0  0
 13 14  1  0  0  0  0
 13 32  1  0  0  0  0
 13 33  1  0  0  0  0
 14 15  2  0  0  0  0
 14 16  1  0  0  0  0
 16 17  1  0  0  0  0
 16 23  1  0  0  0  0
 17 18  2  0  0  0  0
 17 22  1  0  0  0  0
 18 19  1  0  0  0  0
 18 34  1  0  0  0  0
 19 20  2  0  0  0  0
 19 35  1  0  0  0  0
 20 21  1  0  0  0  0
 20 36  1  0  0  0  0
 21 22  2  0  0  0  0
 21 37  1  0  0  0  0
 22 38  1  0  0  0  0
 23 24  2  0  0  0  0
 23 28  1  0  0  0  0
 24 25  1  0  0  0  0
 24 39  1  0  0  0  0
 25 26  2  0  0  0  0
 25 40  1  0  0  0  0
 26 27  1  0  0  0  0
 26 41  1  0  0  0  0
 27 28  2  0  0  0  0
 27 42  1  0  0  0  0
M  END
$$$$
