
 OpenBabel01122422373D

 49 52  0  0  0  0  0  0  0  0999 V2000
    2.6111    0.0535    0.7556 O   0  0  0  0  0  0  0  0  0  0  0  0
    3.5242    0.0252   -0.0638 C   0  0  0  0  0  0  0  0  0  0  0  0
    3.5302    0.7932   -1.2025 N   0  0  0  0  0  0  0  0  0  0  0  0
    2.4347    1.6674   -1.5535 C   0  0  0  0  0  0  0  0  0  0  0  0
    1.4940    1.0620   -2.5688 C   0  0  0  0  0  0  0  0  0  0  0  0
    0.7109   -0.0553   -2.2416 C   0  0  0  0  0  0  0  0  0  0  0  0
   -0.2887   -0.5079   -3.1100 C   0  0  0  0  0  0  0  0  0  0  0  0
   -0.5278    0.1547   -4.3182 C   0  0  0  0  0  0  0  0  0  0  0  0
   -1.7008   -0.1893   -5.1391 C   0  0  0  0  0  0  0  0  0  0  0  0
   -2.8364    0.4993   -4.9014 C   0  0  0  0  0  0  0  0  0  0  0  0
   -3.9746    0.2622   -5.6388 N   0  0  0  0  0  0  0  0  0  0  0  0
   -4.0507   -0.6556   -6.6542 C   0  0  0  0  0  0  0  0  0  0  0  0
   -5.0653   -0.8360   -7.3164 O   0  0  0  0  0  0  0  0  0  0  0  0
   -2.8109   -1.4355   -6.9130 C   0  0  0  0  0  0  0  0  0  0  0  0
   -1.7096   -1.2004   -6.1821 C   0  0  0  0  0  0  0  0  0  0  0  0
    0.3030    1.2202   -4.6862 C   0  0  0  0  0  0  0  0  0  0  0  0
    1.3059    1.6694   -3.8191 C   0  0  0  0  0  0  0  0  0  0  0  0
    4.7522   -0.8527    0.1233 C   0  0  0  0  0  0  0  0  0  0  0  0
    4.5123   -1.8567    0.9976 C   0  0  0  0  0  0  0  0  0  0  0  0
    3.9977   -3.0285    0.4233 N   0  0  0  0  0  0  0  0  0  0  0  0
    3.2017   -3.9614    1.1378 C   0  0  0  0  0  0  0  0  0  0  0  0
    3.6283   -4.5074    2.3479 C   0  0  0  0  0  0  0  0  0  0  0  0
    3.1686   -5.7802    2.6956 C   0  0  0  0  0  0  0  0  0  0  0  0
    2.2511   -6.4490    1.8777 C   0  0  0  0  0  0  0  0  0  0  0  0
    1.6799   -5.8008    0.7893 C   0  0  0  0  0  0  0  0  0  0  0  0
    2.1262   -4.5354    0.4485 C   0  0  0  0  0  0  0  0  0  0  0  0
    4.4084   -3.4254   -0.8731 C   0  0  0  0  0  0  0  0  0  0  0  0
    4.1573   -4.4793   -1.4534 O   0  0  0  0  0  0  0  0  0  0  0  0
    5.3357   -2.4868   -1.5553 C   0  0  0  0  0  0  0  0  0  0  0  0
    5.5039   -1.2504   -1.0606 C   0  0  0  0  0  0  0  0  0  0  0  0
    4.2812    0.7158   -1.8691 H   0  0  0  0  0  0  0  0  0  0  0  0
    2.8917    2.5776   -1.9576 H   0  0  0  0  0  0  0  0  0  0  0  0
    1.8676    1.9590   -0.6622 H   0  0  0  0  0  0  0  0  0  0  0  0
    0.8383   -0.5495   -1.2793 H   0  0  0  0  0  0  0  0  0  0  0  0
   -0.9127   -1.3473   -2.8105 H   0  0  0  0  0  0  0  0  0  0  0  0
   -2.9148    1.2660   -4.1420 H   0  0  0  0  0  0  0  0  0  0  0  0
   -4.8201    0.7888   -5.4579 H   0  0  0  0  0  0  0  0  0  0  0  0
   -2.8566   -2.1790   -7.6975 H   0  0  0  0  0  0  0  0  0  0  0  0
   -0.8000   -1.7651   -6.3578 H   0  0  0  0  0  0  0  0  0  0  0  0
    0.1417    1.7404   -5.6284 H   0  0  0  0  0  0  0  0  0  0  0  0
    1.9035    2.5307   -4.1106 H   0  0  0  0  0  0  0  0  0  0  0  0
    5.3816   -2.1709    1.5873 H   0  0  0  0  0  0  0  0  0  0  0  0
    4.4073   -4.0429    2.9433 H   0  0  0  0  0  0  0  0  0  0  0  0
    3.5889   -6.2915    3.5573 H   0  0  0  0  0  0  0  0  0  0  0  0
    1.9969   -7.4865    2.0721 H   0  0  0  0  0  0  0  0  0  0  0  0
    0.9613   -6.2990    0.1463 H   0  0  0  0  0  0  0  0  0  0  0  0
    1.7303   -4.0450   -0.4388 H   0  0  0  0  0  0  0  0  0  0  0  0
    5.8457   -2.8585   -2.4399 H   0  0  0  0  0  0  0  0  0  0  0  0
    6.1799   -0.5470   -1.5204 H   0  0  0  0  0  0  0  0  0  0  0  0
  1  2  2  0  0  0  0
  2  3  1  0  0  0  0
  2 18  1  0  0  0  0
  3  4  1  0  0  0  0
  3 31  1  0  0  0  0
  4  5  1  0  0  0  0
  4 32  1  0  0  0  0
  4 33  1  0  0  0  0
  5  6  2  0  0  0  0
  5 17  1  0  0  0  0
  6  7  1  0  0  0  0
  6 34  1  0  0  0  0
  7  8  2  0  0  0  0
  7 35  1  0  0  0  0
  8  9  1  0  0  0  0
  8 16  1  0  0  0  0
  9 10  2  0  0  0  0
  9 15  1  0  0  0  0
 10 11  1  0  0  0  0
 10 36  1  0  0  0  0
 11 12  1  0  0  0  0
 11 37  1  0  0  0  0
 12 13  2  0  0  0  0
 12 14  1  0  0  0  0
 14 15  2  0  0  0  0
 14 38  1  0  0  0  0
 15 39  1  0  0  0  0
 16 17  2  0  0  0  0
 16 40  1  0  0  0  0
 17 41  1  0  0  0  0
 18 19  2  0  0  0  0
 18 30  1  0  0  0  0
 19 20  1  0  0  0  0
 19 42  1  0  0  0  0
 20 21  1  0  0  0  0
 20 27  1  0  0  0  0
 21 22  2  0  0  0  0
 21 26  1  0  0  0  0
 22 23  1  0  0  0  0
 22 43  1  0  0  0  0
 23 24  2  0  0  0  0
 23 44  1  0  0  0  0
 24 25  1  0  0  0  0
 24 45  1  0  0  0  0
 25 26  2  0  0  0  0
 25 46  1  0  0  0  0
 26 47  1  0  0  0  0
 27 28  2  0  0  0  0
 27 29  1  0  0  0  0
 29 30  2  0  0  0  0
 29 48  1  0  0  0  0
 30 49  1  0  0  0  0
M  END
$$$$
