
 OpenBabel01122422373D

 46 49  0  0  0  0  0  0  0  0999 V2000
   -2.3258    0.1066    0.7603 C   0  0  0  0  0  0  0  0  0  0  0  0
   -0.8997   -0.0090    0.3008 C   0  0  0  0  0  0  0  0  0  0  0  0
   -0.2369    1.1875    0.2779 N   0  0  0  0  0  0  0  0  0  0  0  0
    1.0710    1.1717    0.0051 C   0  0  0  0  0  0  0  0  0  0  0  0
    1.7236    2.3983    0.0565 N   0  0  0  0  0  0  0  0  0  0  0  0
    3.0839    2.5211    0.1960 C   0  0  0  0  0  0  0  0  0  0  0  0
    3.8932    1.6293    0.4230 O   0  0  0  0  0  0  0  0  0  0  0  0
    3.6128    3.9424    0.1520 C   0  0  0  0  0  0  0  0  0  0  0  0
    2.8602    4.8970    0.6497 N   0  0  0  0  0  0  0  0  0  0  0  0
    3.3685    6.1850    0.6370 N   0  0  0  0  0  0  0  0  0  0  0  0
    2.5482    7.1978    1.2336 C   0  0  0  0  0  0  0  0  0  0  0  0
    1.6530    6.8916    2.2751 C   0  0  0  0  0  0  0  0  0  0  0  0
    0.9180    7.8988    2.9124 C   0  0  0  0  0  0  0  0  0  0  0  0
    1.0541    9.2181    2.5008 C   0  0  0  0  0  0  0  0  0  0  0  0
    0.3613   10.1823    3.1210 F   0  0  0  0  0  0  0  0  0  0  0  0
    1.9021    9.5519    1.4565 C   0  0  0  0  0  0  0  0  0  0  0  0
    2.6384    8.5463    0.8248 C   0  0  0  0  0  0  0  0  0  0  0  0
    4.6590    6.4653    0.2202 C   0  0  0  0  0  0  0  0  0  0  0  0
    5.5086    5.5861   -0.2964 C   0  0  0  0  0  0  0  0  0  0  0  0
    4.9880    4.2256   -0.4296 C   0  0  0  0  0  0  0  0  0  0  0  0
    5.6382    3.3721   -1.0152 O   0  0  0  0  0  0  0  0  0  0  0  0
    1.7388    0.0700   -0.3216 N   0  0  0  0  0  0  0  0  0  0  0  0
    1.0435   -1.0865   -0.3461 C   0  0  0  0  0  0  0  0  0  0  0  0
   -0.3016   -1.2302   -0.0323 C   0  0  0  0  0  0  0  0  0  0  0  0
   -0.9476   -2.5717   -0.0635 C   0  0  0  0  0  0  0  0  0  0  0  0
   -0.2287   -3.7383    0.2745 C   0  0  0  0  0  0  0  0  0  0  0  0
   -0.8074   -5.0128    0.2046 C   0  0  0  0  0  0  0  0  0  0  0  0
   -2.1379   -5.1562   -0.1694 C   0  0  0  0  0  0  0  0  0  0  0  0
   -2.8778   -4.0287   -0.4957 C   0  0  0  0  0  0  0  0  0  0  0  0
   -2.2792   -2.7636   -0.4717 C   0  0  0  0  0  0  0  0  0  0  0  0
   -2.5264    1.1090    1.1541 H   0  0  0  0  0  0  0  0  0  0  0  0
   -2.5369   -0.6067    1.5632 H   0  0  0  0  0  0  0  0  0  0  0  0
   -3.0183   -0.0385   -0.0718 H   0  0  0  0  0  0  0  0  0  0  0  0
    1.1307    3.2099    0.1551 H   0  0  0  0  0  0  0  0  0  0  0  0
    1.5550    5.8677    2.6269 H   0  0  0  0  0  0  0  0  0  0  0  0
    0.2515    7.6607    3.7354 H   0  0  0  0  0  0  0  0  0  0  0  0
    1.9906   10.5863    1.1408 H   0  0  0  0  0  0  0  0  0  0  0  0
    3.2769    8.8329   -0.0069 H   0  0  0  0  0  0  0  0  0  0  0  0
    4.9889    7.4887    0.3650 H   0  0  0  0  0  0  0  0  0  0  0  0
    6.5165    5.8090   -0.6125 H   0  0  0  0  0  0  0  0  0  0  0  0
    1.6525   -1.9369   -0.6457 H   0  0  0  0  0  0  0  0  0  0  0  0
    0.8099   -3.6818    0.5988 H   0  0  0  0  0  0  0  0  0  0  0  0
   -0.2146   -5.8928    0.4438 H   0  0  0  0  0  0  0  0  0  0  0  0
   -2.5932   -6.1410   -0.2164 H   0  0  0  0  0  0  0  0  0  0  0  0
   -3.9205   -4.1263   -0.7892 H   0  0  0  0  0  0  0  0  0  0  0  0
   -2.8906   -1.9350   -0.8101 H   0  0  0  0  0  0  0  0  0  0  0  0
  1  2  1  0  0  0  0
  1 31  1  0  0  0  0
  1 32  1  0  0  0  0
  1 33  1  0  0  0  0
  2  3  2  0  0  0  0
  2 24  1  0  0  0  0
  3  4  1  0  0  0  0
  4  5  1  0  0  0  0
  4 22  2  0  0  0  0
  5  6  1  0  0  0  0
  5 34  1  0  0  0  0
  6  7  2  0  0  0  0
  6  8  1  0  0  0  0
  8  9  2  0  0  0  0
  8 20  1  0  0  0  0
  9 10  1  0  0  0  0
 10 11  1  0  0  0  0
 10 18  1  0  0  0  0
 11 12  2  0  0  0  0
 11 17  1  0  0  0  0
 12 13  1  0  0  0  0
 12 35  1  0  0  0  0
 13 14  2  0  0  0  0
 13 36  1  0  0  0  0
 14 15  1  0  0  0  0
 14 16  1  0  0  0  0
 16 17  2  0  0  0  0
 16 37  1  0  0  0  0
 17 38  1  0  0  0  0
 18 19  2  0  0  0  0
 18 39  1  0  0  0  0
 19 20  1  0  0  0  0
 19 40  1  0  0  0  0
 20 21  2  0  0  0  0
 22 23  1  0  0  0  0
 23 24  2  0  0  0  0
 23 41  1  0  0  0  0
 24 25  1  0  0  0  0
 25 26  2  0  0  0  0
 25 30  1  0  0  0  0
 26 27  1  0  0  0  0
 26 42  1  0  0  0  0
 27 28  2  0  0  0  0
 27 43  1  0  0  0  0
 28 29  1  0  0  0  0
 28 44  1  0  0  0  0
 29 30  2  0  0  0  0
 29 45  1  0  0  0  0
 30 46  1  0  0  0  0
M  END
$$$$
