
 OpenBabel01122422373D

 48 51  0  0  0  0  0  0  0  0999 V2000
    1.0909    0.2324    0.1116 O   0  0  0  0  0  0  0  0  0  0  0  0
    2.3178    0.3018    0.1516 C   0  0  0  0  0  0  0  0  0  0  0  0
    3.0003    0.2706    1.3461 N   0  0  0  0  0  0  0  0  0  0  0  0
    2.2945    0.1216    2.6086 C   0  0  0  0  0  0  0  0  0  0  0  0
    2.5399    1.2862    3.5354 C   0  0  0  0  0  0  0  0  0  0  0  0
    2.1550    2.5824    3.1634 C   0  0  0  0  0  0  0  0  0  0  0  0
    2.3888    3.6676    4.0135 C   0  0  0  0  0  0  0  0  0  0  0  0
    2.9993    3.4728    5.2568 C   0  0  0  0  0  0  0  0  0  0  0  0
    3.3002    4.6279    6.1209 C   0  0  0  0  0  0  0  0  0  0  0  0
    2.4251    4.9692    7.0848 C   0  0  0  0  0  0  0  0  0  0  0  0
    2.6644    6.0502    7.9003 N   0  0  0  0  0  0  0  0  0  0  0  0
    3.7774    6.8539    7.8082 C   0  0  0  0  0  0  0  0  0  0  0  0
    3.9661    7.8155    8.5420 O   0  0  0  0  0  0  0  0  0  0  0  0
    4.7500    6.4860    6.7503 C   0  0  0  0  0  0  0  0  0  0  0  0
    4.5056    5.4282    5.9628 C   0  0  0  0  0  0  0  0  0  0  0  0
    3.3533    2.1775    5.6493 C   0  0  0  0  0  0  0  0  0  0  0  0
    3.1202    1.0921    4.7972 C   0  0  0  0  0  0  0  0  0  0  0  0
    3.0651    0.4194   -1.1347 C   0  0  0  0  0  0  0  0  0  0  0  0
    2.2800    0.4776   -2.3040 C   0  0  0  0  0  0  0  0  0  0  0  0
    2.8660    0.5928   -3.5615 C   0  0  0  0  0  0  0  0  0  0  0  0
    4.2397    0.6150   -3.6306 C   0  0  0  0  0  0  0  0  0  0  0  0
    5.0298    0.5435   -2.5430 N   0  0  0  0  0  0  0  0  0  0  0  0
    4.4446    0.4848   -1.3111 C   0  0  0  0  0  0  0  0  0  0  0  0
    5.2950    0.4940   -0.2079 O   0  0  0  0  0  0  0  0  0  0  0  0
    6.5826    0.9396   -0.4214 C   0  0  0  0  0  0  0  0  0  0  0  0
    6.8806    2.1324   -1.0848 C   0  0  0  0  0  0  0  0  0  0  0  0
    8.2079    2.4829   -1.3116 C   0  0  0  0  0  0  0  0  0  0  0  0
    9.1987    1.6517   -0.8129 C   0  0  0  0  0  0  0  0  0  0  0  0
    8.9506    0.5214   -0.1127 N   0  0  0  0  0  0  0  0  0  0  0  0
    7.6460    0.1901    0.0623 C   0  0  0  0  0  0  0  0  0  0  0  0
    4.0092    0.3343    1.3701 H   0  0  0  0  0  0  0  0  0  0  0  0
    2.6529   -0.8120    3.0574 H   0  0  0  0  0  0  0  0  0  0  0  0
    1.2144    0.0083    2.4570 H   0  0  0  0  0  0  0  0  0  0  0  0
    1.6704    2.7514    2.2029 H   0  0  0  0  0  0  0  0  0  0  0  0
    2.0947    4.6656    3.6958 H   0  0  0  0  0  0  0  0  0  0  0  0
    1.5022    4.4287    7.2655 H   0  0  0  0  0  0  0  0  0  0  0  0
    1.9993    6.3030    8.6201 H   0  0  0  0  0  0  0  0  0  0  0  0
    5.6339    7.1018    6.6588 H   0  0  0  0  0  0  0  0  0  0  0  0
    5.2099    5.1460    5.1858 H   0  0  0  0  0  0  0  0  0  0  0  0
    3.8202    2.0055    6.6167 H   0  0  0  0  0  0  0  0  0  0  0  0
    3.3991    0.0940    5.1283 H   0  0  0  0  0  0  0  0  0  0  0  0
    1.1943    0.4418   -2.2383 H   0  0  0  0  0  0  0  0  0  0  0  0
    2.2603    0.6599   -4.4589 H   0  0  0  0  0  0  0  0  0  0  0  0
    4.7596    0.7037   -4.5802 H   0  0  0  0  0  0  0  0  0  0  0  0
    6.0882    2.7658   -1.4734 H   0  0  0  0  0  0  0  0  0  0  0  0
    8.4608    3.3724   -1.8762 H   0  0  0  0  0  0  0  0  0  0  0  0
   10.2474    1.8788   -0.9734 H   0  0  0  0  0  0  0  0  0  0  0  0
    7.4806   -0.7345    0.6055 H   0  0  0  0  0  0  0  0  0  0  0  0
  1  2  2  0  0  0  0
  2  3  1  0  0  0  0
  2 18  1  0  0  0  0
  3  4  1  0  0  0  0
  3 31  1  0  0  0  0
  4  5  1  0  0  0  0
  4 32  1  0  0  0  0
  4 33  1  0  0  0  0
  5  6  2  0  0  0  0
  5 17  1  0  0  0  0
  6  7  1  0  0  0  0
  6 34  1  0  0  0  0
  7  8  2  0  0  0  0
  7 35  1  0  0  0  0
  8  9  1  0  0  0  0
  8 16  1  0  0  0  0
  9 10  2  0  0  0  0
  9 15  1  0  0  0  0
 10 11  1  0  0  0  0
 10 36  1  0  0  0  0
 11 12  1  0  0  0  0
 11 37  1  0  0  0  0
 12 13  2  0  0  0  0
 12 14  1  0  0  0  0
 14 15  2  0  0  0  0
 14 38  1  0  0  0  0
 15 39  1  0  0  0  0
 16 17  2  0  0  0  0
 16 40  1  0  0  0  0
 17 41  1  0  0  0  0
 18 19  2  0  0  0  0
 18 23  1  0  0  0  0
 19 20  1  0  0  0  0
 19 42  1  0  0  0  0
 20 21  2  0  0  0  0
 20 43  1  0  0  0  0
 21 22  1  0  0  0  0
 21 44  1  0  0  0  0
 22 23  2  0  0  0  0
 23 24  1  0  0  0  0
 24 25  1  0  0  0  0
 25 26  2  0  0  0  0
 25 30  1  0  0  0  0
 26 27  1  0  0  0  0
 26 45  1  0  0  0  0
 27 28  2  0  0  0  0
 27 46  1  0  0  0  0
 28 29  1  0  0  0  0
 28 47  1  0  0  0  0
 29 30  2  0  0  0  0
 30 48  1  0  0  0  0
M  END
$$$$
