
 OpenBabel01122422373D

 48 51  0  0  0  0  0  0  0  0999 V2000
    1.0835    0.4450   -0.5349 O   0  0  0  0  0  0  0  0  0  0  0  0
    2.1264    0.0898   -0.0103 C   0  0  0  0  0  0  0  0  0  0  0  0
    2.6726    0.7279    1.0436 O   0  0  0  0  0  0  0  0  0  0  0  0
    2.9343   -1.0538   -0.5014 C   0  0  0  0  0  0  0  0  0  0  0  0
    2.9253   -1.3386   -1.8612 C   0  0  0  0  0  0  0  0  0  0  0  0
    3.6603   -2.4237   -2.3656 C   0  0  0  0  0  0  0  0  0  0  0  0
    4.4248   -3.2478   -1.5211 C   0  0  0  0  0  0  0  0  0  0  0  0
    5.2083   -4.3982   -2.0444 C   0  0  0  0  0  0  0  0  0  0  0  0
    5.7755   -4.3893   -3.3283 C   0  0  0  0  0  0  0  0  0  0  0  0
    6.5249   -5.4715   -3.8026 C   0  0  0  0  0  0  0  0  0  0  0  0
    6.7517   -6.5807   -2.9796 C   0  0  0  0  0  0  0  0  0  0  0  0
    6.2311   -6.6125   -1.6913 C   0  0  0  0  0  0  0  0  0  0  0  0
    6.5186   -7.7653   -0.7689 C   0  0  0  0  0  0  0  0  0  0  0  0
    5.4517   -8.7360   -0.7723 N   0  0  0  0  0  0  0  0  0  0  0  0
    5.5610   -9.8728    0.0000 C   0  0  0  0  0  0  0  0  0  0  0  0
    6.4655  -10.0587    0.8177 O   0  0  0  0  0  0  0  0  0  0  0  0
    4.5646  -10.9299   -0.2733 C   0  0  0  0  0  0  0  0  0  0  0  0
    4.9962  -12.2676   -0.2433 C   0  0  0  0  0  0  0  0  0  0  0  0
    4.1411  -13.2825   -0.6609 C   0  0  0  0  0  0  0  0  0  0  0  0
    2.8354  -12.9463   -0.9976 C   0  0  0  0  0  0  0  0  0  0  0  0
    1.8635  -13.9718   -1.4163 C   0  0  0  0  0  0  0  0  0  0  0  0
    2.1300  -14.8475   -2.2248 O   0  0  0  0  0  0  0  0  0  0  0  0
    0.5317  -13.8299   -0.7916 C   0  0  0  0  0  0  0  0  0  0  0  0
    0.1450  -12.5641   -0.5762 C   0  0  0  0  0  0  0  0  0  0  0  0
    0.9325  -11.4626   -0.8570 N   0  0  0  0  0  0  0  0  0  0  0  0
    2.3313  -11.6436   -0.8294 C   0  0  0  0  0  0  0  0  0  0  0  0
    3.2231  -10.6133   -0.5472 C   0  0  0  0  0  0  0  0  0  0  0  0
    5.4345   -5.5408   -1.2510 C   0  0  0  0  0  0  0  0  0  0  0  0
    4.4091   -2.9389   -0.1475 C   0  0  0  0  0  0  0  0  0  0  0  0
    3.6619   -1.8690    0.3643 C   0  0  0  0  0  0  0  0  0  0  0  0
    3.5908    0.4699    1.2537 H   0  0  0  0  0  0  0  0  0  0  0  0
    2.3454   -0.7219   -2.5505 H   0  0  0  0  0  0  0  0  0  0  0  0
    3.6116   -2.6170   -3.4355 H   0  0  0  0  0  0  0  0  0  0  0  0
    5.6595   -3.5271   -3.9812 H   0  0  0  0  0  0  0  0  0  0  0  0
    6.9488   -5.4363   -4.8034 H   0  0  0  0  0  0  0  0  0  0  0  0
    7.3568   -7.4011   -3.3627 H   0  0  0  0  0  0  0  0  0  0  0  0
    6.6601   -7.4067    0.2585 H   0  0  0  0  0  0  0  0  0  0  0  0
    7.4502   -8.2687   -1.0574 H   0  0  0  0  0  0  0  0  0  0  0  0
    4.8329   -8.7457   -1.5725 H   0  0  0  0  0  0  0  0  0  0  0  0
    6.0038  -12.5142    0.0871 H   0  0  0  0  0  0  0  0  0  0  0  0
    4.4614  -14.3214   -0.6724 H   0  0  0  0  0  0  0  0  0  0  0  0
   -0.0342  -14.7199   -0.5648 H   0  0  0  0  0  0  0  0  0  0  0  0
   -0.8145  -12.3351   -0.1234 H   0  0  0  0  0  0  0  0  0  0  0  0
    0.5615  -10.5484   -0.6245 H   0  0  0  0  0  0  0  0  0  0  0  0
    2.8734   -9.5883   -0.4713 H   0  0  0  0  0  0  0  0  0  0  0  0
    4.9938   -5.6144   -0.2577 H   0  0  0  0  0  0  0  0  0  0  0  0
    4.9817   -3.5236    0.5693 H   0  0  0  0  0  0  0  0  0  0  0  0
    3.6444   -1.7114    1.4410 H   0  0  0  0  0  0  0  0  0  0  0  0
  1  2  2  0  0  0  0
  2  3  1  0  0  0  0
  2  4  1  0  0  0  0
  3 31  1  0  0  0  0
  4  5  2  0  0  0  0
  4 30  1  0  0  0  0
  5  6  1  0  0  0  0
  5 32  1  0  0  0  0
  6  7  2  0  0  0  0
  6 33  1  0  0  0  0
  7  8  1  0  0  0  0
  7 29  1  0  0  0  0
  8  9  2  0  0  0  0
  8 28  1  0  0  0  0
  9 10  1  0  0  0  0
  9 34  1  0  0  0  0
 10 11  2  0  0  0  0
 10 35  1  0  0  0  0
 11 12  1  0  0  0  0
 11 36  1  0  0  0  0
 12 13  1  0  0  0  0
 12 28  2  0  0  0  0
 13 14  1  0  0  0  0
 13 37  1  0  0  0  0
 13 38  1  0  0  0  0
 14 15  1  0  0  0  0
 14 39  1  0  0  0  0
 15 16  2  0  0  0  0
 15 17  1  0  0  0  0
 17 18  2  0  0  0  0
 17 27  1  0  0  0  0
 18 19  1  0  0  0  0
 18 40  1  0  0  0  0
 19 20  2  0  0  0  0
 19 41  1  0  0  0  0
 20 21  1  0  0  0  0
 20 26  1  0  0  0  0
 21 22  2  0  0  0  0
 21 23  1  0  0  0  0
 23 24  2  0  0  0  0
 23 42  1  0  0  0  0
 24 25  1  0  0  0  0
 24 43  1  0  0  0  0
 25 26  1  0  0  0  0
 25 44  1  0  0  0  0
 26 27  2  0  0  0  0
 27 45  1  0  0  0  0
 28 46  1  0  0  0  0
 29 30  2  0  0  0  0
 29 47  1  0  0  0  0
 30 48  1  0  0  0  0
M  END
$$$$
