
 OpenBabel01122422373D

 45 48  0  0  0  0  0  0  0  0999 V2000
    2.2311   -2.0898    0.6158 N   0  0  0  0  0  0  0  0  0  0  0  0
    2.9514   -0.9400    0.5638 C   0  0  0  0  0  0  0  0  0  0  0  0
    4.2546   -0.7720    0.1765 C   0  0  0  0  0  0  0  0  0  0  0  0
    4.4897    0.6226    0.2042 C   0  0  0  0  0  0  0  0  0  0  0  0
    5.7762    1.2692   -0.0926 C   0  0  0  0  0  0  0  0  0  0  0  0
    6.7272    0.5962   -0.4766 O   0  0  0  0  0  0  0  0  0  0  0  0
    5.7809    2.6329    0.1548 N   0  0  0  0  0  0  0  0  0  0  0  0
    6.8684    3.5146   -0.0122 C   0  0  0  0  0  0  0  0  0  0  0  0
    8.0382    3.1506   -0.6867 C   0  0  0  0  0  0  0  0  0  0  0  0
    9.1261    4.0290   -0.8609 C   0  0  0  0  0  0  0  0  0  0  0  0
   10.3181    3.5845   -1.6167 C   0  0  0  0  0  0  0  0  0  0  0  0
   10.2085    2.7165   -2.7167 C   0  0  0  0  0  0  0  0  0  0  0  0
   11.3424    2.2394   -3.3702 C   0  0  0  0  0  0  0  0  0  0  0  0
   12.5762    2.6631   -2.9166 C   0  0  0  0  0  0  0  0  0  0  0  0
   13.7275    2.2108   -3.4892 O   0  0  0  0  0  0  0  0  0  0  0  0
   12.7441    3.5205   -1.8983 N   0  0  0  0  0  0  0  0  0  0  0  0
   11.6179    3.9517   -1.2740 C   0  0  0  0  0  0  0  0  0  0  0  0
    9.0152    5.3041   -0.2894 C   0  0  0  0  0  0  0  0  0  0  0  0
    7.8517    5.6881    0.3893 C   0  0  0  0  0  0  0  0  0  0  0  0
    6.7755    4.8035    0.5111 C   0  0  0  0  0  0  0  0  0  0  0  0
    3.3791    1.3067    0.5371 N   0  0  0  0  0  0  0  0  0  0  0  0
    2.4719    0.3377    0.8636 N   0  0  0  0  0  0  0  0  0  0  0  0
    1.2345    0.6986    1.4614 C   0  0  0  0  0  0  0  0  0  0  0  0
    0.6637    1.9462    1.1669 C   0  0  0  0  0  0  0  0  0  0  0  0
   -0.5590    2.3004    1.7403 C   0  0  0  0  0  0  0  0  0  0  0  0
   -1.1814    1.4287    2.6277 C   0  0  0  0  0  0  0  0  0  0  0  0
   -2.3478    1.7774    3.1856 F   0  0  0  0  0  0  0  0  0  0  0  0
   -0.6092    0.2047    2.9528 C   0  0  0  0  0  0  0  0  0  0  0  0
    0.6003   -0.1676    2.3651 C   0  0  0  0  0  0  0  0  0  0  0  0
    2.6054   -2.9278    0.1728 H   0  0  0  0  0  0  0  0  0  0  0  0
    1.2137   -2.0613    0.5655 H   0  0  0  0  0  0  0  0  0  0  0  0
    4.9610   -1.5410   -0.1039 H   0  0  0  0  0  0  0  0  0  0  0  0
    4.9191    2.9902    0.5582 H   0  0  0  0  0  0  0  0  0  0  0  0
    8.1269    2.1541   -1.1050 H   0  0  0  0  0  0  0  0  0  0  0  0
    9.2346    2.3902   -3.0721 H   0  0  0  0  0  0  0  0  0  0  0  0
   11.2410    1.5523   -4.2020 H   0  0  0  0  0  0  0  0  0  0  0  0
   13.4934    1.4914   -4.0926 H   0  0  0  0  0  0  0  0  0  0  0  0
   11.8176    4.6145   -0.4345 H   0  0  0  0  0  0  0  0  0  0  0  0
    9.8256    6.0252   -0.3766 H   0  0  0  0  0  0  0  0  0  0  0  0
    7.7866    6.6834    0.8241 H   0  0  0  0  0  0  0  0  0  0  0  0
    5.8839    5.1285    1.0409 H   0  0  0  0  0  0  0  0  0  0  0  0
    1.1413    2.6296    0.4673 H   0  0  0  0  0  0  0  0  0  0  0  0
   -1.0299    3.2486    1.5009 H   0  0  0  0  0  0  0  0  0  0  0  0
   -1.0986   -0.4458    3.6710 H   0  0  0  0  0  0  0  0  0  0  0  0
    1.0590   -1.1059    2.6694 H   0  0  0  0  0  0  0  0  0  0  0  0
  1  2  1  0  0  0  0
  1 30  1  0  0  0  0
  1 31  1  0  0  0  0
  2  3  2  0  0  0  0
  2 22  1  0  0  0  0
  3  4  1  0  0  0  0
  3 32  1  0  0  0  0
  4  5  1  0  0  0  0
  4 21  2  0  0  0  0
  5  6  2  0  0  0  0
  5  7  1  0  0  0  0
  7  8  1  0  0  0  0
  7 33  1  0  0  0  0
  8  9  2  0  0  0  0
  8 20  1  0  0  0  0
  9 10  1  0  0  0  0
  9 34  1  0  0  0  0
 10 11  1  0  0  0  0
 10 18  2  0  0  0  0
 11 12  2  0  0  0  0
 11 17  1  0  0  0  0
 12 13  1  0  0  0  0
 12 35  1  0  0  0  0
 13 14  2  0  0  0  0
 13 36  1  0  0  0  0
 14 15  1  0  0  0  0
 14 16  1  0  0  0  0
 15 37  1  0  0  0  0
 16 17  2  0  0  0  0
 17 38  1  0  0  0  0
 18 19  1  0  0  0  0
 18 39  1  0  0  0  0
 19 20  2  0  0  0  0
 19 40  1  0  0  0  0
 20 41  1  0  0  0  0
 21 22  1  0  0  0  0
 22 23  1  0  0  0  0
 23 24  2  0  0  0  0
 23 29  1  0  0  0  0
 24 25  1  0  0  0  0
 24 42  1  0  0  0  0
 25 26  2  0  0  0  0
 25 43  1  0  0  0  0
 26 27  1  0  0  0  0
 26 28  1  0  0  0  0
 28 29  2  0  0  0  0
 28 44  1  0  0  0  0
 29 45  1  0  0  0  0
M  END
$$$$
