
 OpenBabel01122422373D

 48 51  0  0  0  0  0  0  0  0999 V2000
    1.1435    0.0901    0.0442 O   0  0  0  0  0  0  0  0  0  0  0  0
    2.3589   -0.0860    0.1216 C   0  0  0  0  0  0  0  0  0  0  0  0
    3.0638    0.0174    1.2983 N   0  0  0  0  0  0  0  0  0  0  0  0
    2.3711    0.3773    2.5169 C   0  0  0  0  0  0  0  0  0  0  0  0
    2.3258    1.8681    2.7322 C   0  0  0  0  0  0  0  0  0  0  0  0
    1.2726    2.6382    2.2271 C   0  0  0  0  0  0  0  0  0  0  0  0
    1.2439    4.0163    2.4438 C   0  0  0  0  0  0  0  0  0  0  0  0
    2.2737    4.6433    3.1644 C   0  0  0  0  0  0  0  0  0  0  0  0
    2.2745    6.0245    3.4022 C   0  0  0  0  0  0  0  0  0  0  0  0
    3.3117    6.5998    4.1260 C   0  0  0  0  0  0  0  0  0  0  0  0
    4.3163    5.7708    4.5873 C   0  0  0  0  0  0  0  0  0  0  0  0
    4.3522    4.4362    4.3749 N   0  0  0  0  0  0  0  0  0  0  0  0
    3.3458    3.8822    3.6753 C   0  0  0  0  0  0  0  0  0  0  0  0
    3.3502    2.5120    3.4456 C   0  0  0  0  0  0  0  0  0  0  0  0
    3.1364   -0.3876   -1.1072 C   0  0  0  0  0  0  0  0  0  0  0  0
    2.6777    0.1536   -2.3059 C   0  0  0  0  0  0  0  0  0  0  0  0
    3.3393   -0.1180   -3.5055 C   0  0  0  0  0  0  0  0  0  0  0  0
    4.4594   -0.9532   -3.5466 C   0  0  0  0  0  0  0  0  0  0  0  0
    5.1283   -1.2869   -4.7547 N   0  0  0  0  0  0  0  0  0  0  0  0
    4.7761   -0.8531   -6.0213 C   0  0  0  0  0  0  0  0  0  0  0  0
    3.8283   -0.1156   -6.2924 O   0  0  0  0  0  0  0  0  0  0  0  0
    5.6517   -1.3149   -7.1444 C   0  0  0  0  0  0  0  0  0  0  0  0
    5.6187   -0.5612   -8.2605 C   0  0  0  0  0  0  0  0  0  0  0  0
    6.2990   -0.9430   -9.3924 N   0  0  0  0  0  0  0  0  0  0  0  0
    7.0263   -2.1006   -9.4876 C   0  0  0  0  0  0  0  0  0  0  0  0
    7.6260   -2.4329  -10.5072 O   0  0  0  0  0  0  0  0  0  0  0  0
    7.0356   -2.9576   -8.2718 C   0  0  0  0  0  0  0  0  0  0  0  0
    6.3823   -2.5677   -7.1646 C   0  0  0  0  0  0  0  0  0  0  0  0
    4.9250   -1.4897   -2.3353 C   0  0  0  0  0  0  0  0  0  0  0  0
    4.2667   -1.2120   -1.1196 C   0  0  0  0  0  0  0  0  0  0  0  0
    4.0708    0.1104    1.2697 H   0  0  0  0  0  0  0  0  0  0  0  0
    2.8804   -0.1077    3.3564 H   0  0  0  0  0  0  0  0  0  0  0  0
    1.3554   -0.0338    2.4856 H   0  0  0  0  0  0  0  0  0  0  0  0
    0.4644    2.1678    1.6682 H   0  0  0  0  0  0  0  0  0  0  0  0
    0.4118    4.5956    2.0511 H   0  0  0  0  0  0  0  0  0  0  0  0
    1.4708    6.6534    3.0283 H   0  0  0  0  0  0  0  0  0  0  0  0
    3.3343    7.6650    4.3259 H   0  0  0  0  0  0  0  0  0  0  0  0
    5.1484    6.1676    5.1620 H   0  0  0  0  0  0  0  0  0  0  0  0
    4.1740    1.9285    3.8506 H   0  0  0  0  0  0  0  0  0  0  0  0
    1.7948    0.7903   -2.3190 H   0  0  0  0  0  0  0  0  0  0  0  0
    2.9288    0.3465   -4.3945 H   0  0  0  0  0  0  0  0  0  0  0  0
    5.9423   -1.8812   -4.6694 H   0  0  0  0  0  0  0  0  0  0  0  0
    5.0407    0.3568   -8.3368 H   0  0  0  0  0  0  0  0  0  0  0  0
    6.2467   -0.3733  -10.2285 H   0  0  0  0  0  0  0  0  0  0  0  0
    7.5592   -3.9009   -8.3524 H   0  0  0  0  0  0  0  0  0  0  0  0
    6.3447   -3.2182   -6.3001 H   0  0  0  0  0  0  0  0  0  0  0  0
    5.7915   -2.1464   -2.3131 H   0  0  0  0  0  0  0  0  0  0  0  0
    4.6184   -1.6749   -0.2011 H   0  0  0  0  0  0  0  0  0  0  0  0
  1  2  2  0  0  0  0
  2  3  1  0  0  0  0
  2 15  1  0  0  0  0
  3  4  1  0  0  0  0
  3 31  1  0  0  0  0
  4  5  1  0  0  0  0
  4 32  1  0  0  0  0
  4 33  1  0  0  0  0
  5  6  2  0  0  0  0
  5 14  1  0  0  0  0
  6  7  1  0  0  0  0
  6 34  1  0  0  0  0
  7  8  2  0  0  0  0
  7 35  1  0  0  0  0
  8  9  1  0  0  0  0
  8 13  1  0  0  0  0
  9 10  2  0  0  0  0
  9 36  1  0  0  0  0
 10 11  1  0  0  0  0
 10 37  1  0  0  0  0
 11 12  2  0  0  0  0
 11 38  1  0  0  0  0
 12 13  1  0  0  0  0
 13 14  2  0  0  0  0
 14 39  1  0  0  0  0
 15 16  2  0  0  0  0
 15 30  1  0  0  0  0
 16 17  1  0  0  0  0
 16 40  1  0  0  0  0
 17 18  2  0  0  0  0
 17 41  1  0  0  0  0
 18 19  1  0  0  0  0
 18 29  1  0  0  0  0
 19 20  1  0  0  0  0
 19 42  1  0  0  0  0
 20 21  2  0  0  0  0
 20 22  1  0  0  0  0
 22 23  2  0  0  0  0
 22 28  1  0  0  0  0
 23 24  1  0  0  0  0
 23 43  1  0  0  0  0
 24 25  1  0  0  0  0
 24 44  1  0  0  0  0
 25 26  2  0  0  0  0
 25 27  1  0  0  0  0
 27 28  2  0  0  0  0
 27 45  1  0  0  0  0
 28 46  1  0  0  0  0
 29 30  2  0  0  0  0
 29 47  1  0  0  0  0
 30 48  1  0  0  0  0
M  END
$$$$
