
 OpenBabel01122422353D

 41 44  0  0  0  0  0  0  0  0999 V2000
    1.0283    0.0882    0.3739 O   0  0  0  0  0  0  0  0  0  0  0  0
    2.1915   -0.1142    0.0498 C   0  0  0  0  0  0  0  0  0  0  0  0
    2.7777    0.1549   -1.1651 N   0  0  0  0  0  0  0  0  0  0  0  0
    2.1303    0.7482   -2.2407 C   0  0  0  0  0  0  0  0  0  0  0  0
    2.7769    0.6436   -3.4132 N   0  0  0  0  0  0  0  0  0  0  0  0
    2.1623    1.1505   -4.5081 C   0  0  0  0  0  0  0  0  0  0  0  0
    2.8718    0.9728   -5.7937 C   0  0  0  0  0  0  0  0  0  0  0  0
    3.6996   -0.1423   -6.0189 C   0  0  0  0  0  0  0  0  0  0  0  0
    4.3500   -0.3199   -7.2413 C   0  0  0  0  0  0  0  0  0  0  0  0
    5.1228   -1.3973   -7.4243 F   0  0  0  0  0  0  0  0  0  0  0  0
    4.2062    0.5958   -8.2707 C   0  0  0  0  0  0  0  0  0  0  0  0
    3.4006    1.7003   -8.0592 C   0  0  0  0  0  0  0  0  0  0  0  0
    3.2442    2.6004   -9.0394 F   0  0  0  0  0  0  0  0  0  0  0  0
    2.7410    1.8970   -6.8463 C   0  0  0  0  0  0  0  0  0  0  0  0
    0.9292    1.7740   -4.4237 C   0  0  0  0  0  0  0  0  0  0  0  0
    0.3712    1.8569   -3.1740 C   0  0  0  0  0  0  0  0  0  0  0  0
    0.9548    1.3568   -2.0791 N   0  0  0  0  0  0  0  0  0  0  0  0
    3.0643   -0.7967    1.0284 C   0  0  0  0  0  0  0  0  0  0  0  0
    2.4990   -1.7382    1.8784 C   0  0  0  0  0  0  0  0  0  0  0  0
    3.2113   -2.4472    2.7847 N   0  0  0  0  0  0  0  0  0  0  0  0
    4.5413   -2.1922    2.8560 C   0  0  0  0  0  0  0  0  0  0  0  0
    5.1995   -1.2505    2.0666 C   0  0  0  0  0  0  0  0  0  0  0  0
    6.6029   -1.0375    2.1916 N   0  0  0  0  0  0  0  0  0  0  0  0
    7.4697   -1.7064    3.0367 C   0  0  0  0  0  0  0  0  0  0  0  0
    8.7543   -1.2537    2.8278 C   0  0  0  0  0  0  0  0  0  0  0  0
    8.6874   -0.2545    1.8397 C   0  0  0  0  0  0  0  0  0  0  0  0
    7.3650   -0.1323    1.4735 C   0  0  0  0  0  0  0  0  0  0  0  0
    4.4330   -0.5345    1.1386 C   0  0  0  0  0  0  0  0  0  0  0  0
    3.6784   -0.2238   -1.4098 H   0  0  0  0  0  0  0  0  0  0  0  0
    3.8389   -0.8960   -5.2469 H   0  0  0  0  0  0  0  0  0  0  0  0
    4.7119    0.4509   -9.2177 H   0  0  0  0  0  0  0  0  0  0  0  0
    2.1357    2.7934   -6.7429 H   0  0  0  0  0  0  0  0  0  0  0  0
    0.4025    2.1599   -5.2860 H   0  0  0  0  0  0  0  0  0  0  0  0
   -0.5904    2.3334   -3.0125 H   0  0  0  0  0  0  0  0  0  0  0  0
    1.4356   -1.9639    1.8470 H   0  0  0  0  0  0  0  0  0  0  0  0
    5.0453   -2.8014    3.5994 H   0  0  0  0  0  0  0  0  0  0  0  0
    7.1294   -2.4669    3.7237 H   0  0  0  0  0  0  0  0  0  0  0  0
    9.6396   -1.6081    3.3403 H   0  0  0  0  0  0  0  0  0  0  0  0
    9.5108    0.3201    1.4356 H   0  0  0  0  0  0  0  0  0  0  0  0
    6.9280    0.5390    0.7497 H   0  0  0  0  0  0  0  0  0  0  0  0
    4.8689    0.2374    0.5150 H   0  0  0  0  0  0  0  0  0  0  0  0
  1  2  2  0  0  0  0
  2  3  1  0  0  0  0
  2 18  1  0  0  0  0
  3  4  1  0  0  0  0
  3 29  1  0  0  0  0
  4  5  2  0  0  0  0
  4 17  1  0  0  0  0
  5  6  1  0  0  0  0
  6  7  1  0  0  0  0
  6 15  2  0  0  0  0
  7  8  2  0  0  0  0
  7 14  1  0  0  0  0
  8  9  1  0  0  0  0
  8 30  1  0  0  0  0
  9 10  1  0  0  0  0
  9 11  2  0  0  0  0
 11 12  1  0  0  0  0
 11 31  1  0  0  0  0
 12 13  1  0  0  0  0
 12 14  2  0  0  0  0
 14 32  1  0  0  0  0
 15 16  1  0  0  0  0
 15 33  1  0  0  0  0
 16 17  2  0  0  0  0
 16 34  1  0  0  0  0
 18 19  2  0  0  0  0
 18 28  1  0  0  0  0
 19 20  1  0  0  0  0
 19 35  1  0  0  0  0
 20 21  2  0  0  0  0
 21 22  1  0  0  0  0
 21 36  1  0  0  0  0
 22 23  1  0  0  0  0
 22 28  2  0  0  0  0
 23 24  1  0  0  0  0
 23 27  1  0  0  0  0
 24 25  2  0  0  0  0
 24 37  1  0  0  0  0
 25 26  1  0  0  0  0
 25 38  1  0  0  0  0
 26 27  2  0  0  0  0
 26 39  1  0  0  0  0
 27 40  1  0  0  0  0
 28 41  1  0  0  0  0
M  END
$$$$
