
 OpenBabel01122422373D

 49 52  0  0  0  0  0  0  0  0999 V2000
    2.4278    0.4382    0.8862 O   0  0  0  0  0  0  0  0  0  0  0  0
    1.9662    0.1669   -0.2193 C   0  0  0  0  0  0  0  0  0  0  0  0
    0.6986    0.5102   -0.6777 N   0  0  0  0  0  0  0  0  0  0  0  0
   -0.2604    1.2409    0.0503 C   0  0  0  0  0  0  0  0  0  0  0  0
    0.0500    1.9865    1.1937 C   0  0  0  0  0  0  0  0  0  0  0  0
   -0.9412    2.6784    1.8931 C   0  0  0  0  0  0  0  0  0  0  0  0
   -2.2612    2.6284    1.4599 C   0  0  0  0  0  0  0  0  0  0  0  0
   -2.5845    1.8974    0.3174 C   0  0  0  0  0  0  0  0  0  0  0  0
   -1.5883    1.2177   -0.3914 C   0  0  0  0  0  0  0  0  0  0  0  0
    2.8093   -0.6318   -1.1448 C   0  0  0  0  0  0  0  0  0  0  0  0
    4.0252   -1.1248   -0.7024 C   0  0  0  0  0  0  0  0  0  0  0  0
    4.8203   -1.8339   -1.5958 C   0  0  0  0  0  0  0  0  0  0  0  0
    4.3907   -2.0298   -2.9027 C   0  0  0  0  0  0  0  0  0  0  0  0
    5.2914   -2.5995   -3.8057 N   0  0  0  0  0  0  0  0  0  0  0  0
    4.7870   -2.8869   -5.1465 C   0  0  0  0  0  0  0  0  0  0  0  0
    5.6987   -3.7062   -6.0193 C   0  0  0  0  0  0  0  0  0  0  0  0
    6.4735   -4.6721   -5.4994 N   0  0  0  0  0  0  0  0  0  0  0  0
    7.1737   -5.2081   -6.5692 O   0  0  0  0  0  0  0  0  0  0  0  0
    6.8004   -4.5800   -7.7168 C   0  0  0  0  0  0  0  0  0  0  0  0
    7.4368   -5.0405   -8.9714 C   0  0  0  0  0  0  0  0  0  0  0  0
    8.6031   -4.2438   -9.1502 O   0  0  0  0  0  0  0  0  0  0  0  0
    9.3326   -4.4452  -10.2903 C   0  0  0  0  0  0  0  0  0  0  0  0
    9.0657   -5.4043  -11.2708 C   0  0  0  0  0  0  0  0  0  0  0  0
    9.8810   -5.4966  -12.4055 C   0  0  0  0  0  0  0  0  0  0  0  0
   10.9668   -4.6362  -12.5681 C   0  0  0  0  0  0  0  0  0  0  0  0
   11.2455   -3.6846  -11.5908 C   0  0  0  0  0  0  0  0  0  0  0  0
   10.4325   -3.5979  -10.4635 C   0  0  0  0  0  0  0  0  0  0  0  0
   10.7194   -2.6695   -9.5381 F   0  0  0  0  0  0  0  0  0  0  0  0
    5.8643   -3.6196   -7.4210 C   0  0  0  0  0  0  0  0  0  0  0  0
    3.1868   -1.5398   -3.2882 N   0  0  0  0  0  0  0  0  0  0  0  0
    2.3746   -0.8431   -2.4051 N   0  0  0  0  0  0  0  0  0  0  0  0
    0.4260    0.1184   -1.5743 H   0  0  0  0  0  0  0  0  0  0  0  0
    1.0677    2.0707    1.5601 H   0  0  0  0  0  0  0  0  0  0  0  0
   -0.6723    3.2505    2.7777 H   0  0  0  0  0  0  0  0  0  0  0  0
   -3.0323    3.1579    2.0121 H   0  0  0  0  0  0  0  0  0  0  0  0
   -3.6179    1.8502   -0.0146 H   0  0  0  0  0  0  0  0  0  0  0  0
   -1.8712    0.6469   -1.2730 H   0  0  0  0  0  0  0  0  0  0  0  0
    4.3628   -0.9447    0.3138 H   0  0  0  0  0  0  0  0  0  0  0  0
    5.7888   -2.2009   -1.2713 H   0  0  0  0  0  0  0  0  0  0  0  0
    5.8087   -3.3879   -3.4248 H   0  0  0  0  0  0  0  0  0  0  0  0
    4.6056   -1.9324   -5.6564 H   0  0  0  0  0  0  0  0  0  0  0  0
    3.8279   -3.4204   -5.0959 H   0  0  0  0  0  0  0  0  0  0  0  0
    6.7391   -4.8887   -9.8043 H   0  0  0  0  0  0  0  0  0  0  0  0
    7.6997   -6.1020   -8.8956 H   0  0  0  0  0  0  0  0  0  0  0  0
    8.2341   -6.0962  -11.1897 H   0  0  0  0  0  0  0  0  0  0  0  0
    9.6647   -6.2429  -13.1671 H   0  0  0  0  0  0  0  0  0  0  0  0
   11.5926   -4.7073  -13.4542 H   0  0  0  0  0  0  0  0  0  0  0  0
   12.0856   -3.0058  -11.6972 H   0  0  0  0  0  0  0  0  0  0  0  0
    5.3758   -2.9502   -8.1126 H   0  0  0  0  0  0  0  0  0  0  0  0
  1  2  2  0  0  0  0
  2  3  1  0  0  0  0
  2 10  1  0  0  0  0
  3  4  1  0  0  0  0
  3 32  1  0  0  0  0
  4  5  2  0  0  0  0
  4  9  1  0  0  0  0
  5  6  1  0  0  0  0
  5 33  1  0  0  0  0
  6  7  2  0  0  0  0
  6 34  1  0  0  0  0
  7  8  1  0  0  0  0
  7 35  1  0  0  0  0
  8  9  2  0  0  0  0
  8 36  1  0  0  0  0
  9 37  1  0  0  0  0
 10 11  2  0  0  0  0
 10 31  1  0  0  0  0
 11 12  1  0  0  0  0
 11 38  1  0  0  0  0
 12 13  2  0  0  0  0
 12 39  1  0  0  0  0
 13 14  1  0  0  0  0
 13 30  1  0  0  0  0
 14 15  1  0  0  0  0
 14 40  1  0  0  0  0
 15 16  1  0  0  0  0
 15 41  1  0  0  0  0
 15 42  1  0  0  0  0
 16 17  2  0  0  0  0
 16 29  1  0  0  0  0
 17 18  1  0  0  0  0
 18 19  1  0  0  0  0
 19 20  1  0  0  0  0
 19 29  2  0  0  0  0
 20 21  1  0  0  0  0
 20 43  1  0  0  0  0
 20 44  1  0  0  0  0
 21 22  1  0  0  0  0
 22 23  2  0  0  0  0
 22 27  1  0  0  0  0
 23 24  1  0  0  0  0
 23 45  1  0  0  0  0
 24 25  2  0  0  0  0
 24 46  1  0  0  0  0
 25 26  1  0  0  0  0
 25 47  1  0  0  0  0
 26 27  2  0  0  0  0
 26 48  1  0  0  0  0
 27 28  1  0  0  0  0
 29 49  1  0  0  0  0
 30 31  2  0  0  0  0
M  END
$$$$
