
 OpenBabel01122422373D

 45 48  0  0  0  0  0  0  0  0999 V2000
    1.0066    1.0163   -0.0257 O   0  0  0  0  0  0  0  0  0  0  0  0
    2.1741    0.6523    0.0596 C   0  0  0  0  0  0  0  0  0  0  0  0
    2.8074    0.4688    1.2790 N   0  0  0  0  0  0  0  0  0  0  0  0
    2.1516    0.7179    2.5638 C   0  0  0  0  0  0  0  0  0  0  0  0
    1.8032   -0.5586    3.3162 C   0  0  0  0  0  0  0  0  0  0  0  0
    0.5681   -1.1618    3.0964 C   0  0  0  0  0  0  0  0  0  0  0  0
    0.3102   -2.4176    3.6511 C   0  0  0  0  0  0  0  0  0  0  0  0
    1.2790   -3.0274    4.4307 C   0  0  0  0  0  0  0  0  0  0  0  0
    1.1362   -4.3922    4.9302 C   0  0  0  0  0  0  0  0  0  0  0  0
    2.0224   -4.8549    5.8240 C   0  0  0  0  0  0  0  0  0  0  0  0
    3.1294   -3.9934    6.3102 C   0  0  0  0  0  0  0  0  0  0  0  0
    3.8550   -4.3760    7.2237 O   0  0  0  0  0  0  0  0  0  0  0  0
    3.3043   -2.7990    5.6762 N   0  0  0  0  0  0  0  0  0  0  0  0
    2.4285   -2.2903    4.7172 C   0  0  0  0  0  0  0  0  0  0  0  0
    2.7261   -1.0933    4.1622 N   0  0  0  0  0  0  0  0  0  0  0  0
    2.9975    0.4080   -1.1780 C   0  0  0  0  0  0  0  0  0  0  0  0
    4.3287    0.8622   -1.1630 C   0  0  0  0  0  0  0  0  0  0  0  0
    5.1465    0.7529   -2.2960 C   0  0  0  0  0  0  0  0  0  0  0  0
    4.6521    0.1832   -3.4624 C   0  0  0  0  0  0  0  0  0  0  0  0
    3.3443   -0.2697   -3.4960 C   0  0  0  0  0  0  0  0  0  0  0  0
    2.5049   -0.1726   -2.3646 C   0  0  0  0  0  0  0  0  0  0  0  0
    1.2369   -0.6284   -2.6305 O   0  0  0  0  0  0  0  0  0  0  0  0
    0.5773   -1.3847   -1.6997 C   0  0  0  0  0  0  0  0  0  0  0  0
   -0.8131   -1.2378   -1.6940 C   0  0  0  0  0  0  0  0  0  0  0  0
   -1.5612   -1.8080   -0.6722 C   0  0  0  0  0  0  0  0  0  0  0  0
   -0.9134   -2.5551    0.3009 C   0  0  0  0  0  0  0  0  0  0  0  0
   -1.6212   -3.0241    1.3359 F   0  0  0  0  0  0  0  0  0  0  0  0
    0.4592   -2.7892    0.2421 C   0  0  0  0  0  0  0  0  0  0  0  0
    1.2098   -2.2221   -0.7794 C   0  0  0  0  0  0  0  0  0  0  0  0
    3.7515    0.1110    1.3203 H   0  0  0  0  0  0  0  0  0  0  0  0
    1.2539    1.3294    2.4214 H   0  0  0  0  0  0  0  0  0  0  0  0
    2.8517    1.3040    3.1701 H   0  0  0  0  0  0  0  0  0  0  0  0
   -0.1706   -0.6882    2.4545 H   0  0  0  0  0  0  0  0  0  0  0  0
   -0.6322   -2.9171    3.4473 H   0  0  0  0  0  0  0  0  0  0  0  0
    0.3475   -5.0231    4.5376 H   0  0  0  0  0  0  0  0  0  0  0  0
    1.9809   -5.8616    6.2183 H   0  0  0  0  0  0  0  0  0  0  0  0
    4.0538   -2.1980    5.9821 H   0  0  0  0  0  0  0  0  0  0  0  0
    4.7361    1.3616   -0.2891 H   0  0  0  0  0  0  0  0  0  0  0  0
    6.1662    1.1320   -2.2705 H   0  0  0  0  0  0  0  0  0  0  0  0
    5.2791    0.1092   -4.3492 H   0  0  0  0  0  0  0  0  0  0  0  0
    2.9466   -0.7024   -4.4182 H   0  0  0  0  0  0  0  0  0  0  0  0
   -1.2980   -0.6265   -2.4501 H   0  0  0  0  0  0  0  0  0  0  0  0
   -2.6303   -1.6403   -0.6063 H   0  0  0  0  0  0  0  0  0  0  0  0
    0.9520   -3.3584    1.0221 H   0  0  0  0  0  0  0  0  0  0  0  0
    2.2835   -2.3796   -0.8044 H   0  0  0  0  0  0  0  0  0  0  0  0
  1  2  2  0  0  0  0
  2  3  1  0  0  0  0
  2 16  1  0  0  0  0
  3  4  1  0  0  0  0
  3 30  1  0  0  0  0
  4  5  1  0  0  0  0
  4 31  1  0  0  0  0
  4 32  1  0  0  0  0
  5  6  2  0  0  0  0
  5 15  1  0  0  0  0
  6  7  1  0  0  0  0
  6 33  1  0  0  0  0
  7  8  2  0  0  0  0
  7 34  1  0  0  0  0
  8  9  1  0  0  0  0
  8 14  1  0  0  0  0
  9 10  2  0  0  0  0
  9 35  1  0  0  0  0
 10 11  1  0  0  0  0
 10 36  1  0  0  0  0
 11 12  2  0  0  0  0
 11 13  1  0  0  0  0
 13 14  1  0  0  0  0
 13 37  1  0  0  0  0
 14 15  2  0  0  0  0
 16 17  2  0  0  0  0
 16 21  1  0  0  0  0
 17 18  1  0  0  0  0
 17 38  1  0  0  0  0
 18 19  2  0  0  0  0
 18 39  1  0  0  0  0
 19 20  1  0  0  0  0
 19 40  1  0  0  0  0
 20 21  2  0  0  0  0
 20 41  1  0  0  0  0
 21 22  1  0  0  0  0
 22 23  1  0  0  0  0
 23 24  2  0  0  0  0
 23 29  1  0  0  0  0
 24 25  1  0  0  0  0
 24 42  1  0  0  0  0
 25 26  2  0  0  0  0
 25 43  1  0  0  0  0
 26 27  1  0  0  0  0
 26 28  1  0  0  0  0
 28 29  2  0  0  0  0
 28 44  1  0  0  0  0
 29 45  1  0  0  0  0
M  END
$$$$
