
 OpenBabel01122422373D

 50 53  0  0  0  0  0  0  0  0999 V2000
    6.7185    6.0801   -0.9278 N   0  0  0  0  0  0  0  0  0  0  0  0
    6.0021    5.0259   -0.5446 C   0  0  0  0  0  0  0  0  0  0  0  0
    6.4414    3.7799   -0.6088 N   0  0  0  0  0  0  0  0  0  0  0  0
    5.4096    3.0267   -0.1683 N   0  0  0  0  0  0  0  0  0  0  0  0
    5.5637    1.5833   -0.0891 C   0  0  0  0  0  0  0  0  0  0  0  0
    6.8991    1.0343   -0.5286 C   0  0  0  0  0  0  0  0  0  0  0  0
    6.9685    0.0941   -1.3250 O   0  0  0  0  0  0  0  0  0  0  0  0
    8.0130    1.5355    0.1090 N   0  0  0  0  0  0  0  0  0  0  0  0
    9.3080    1.0488   -0.2986 C   0  0  0  0  0  0  0  0  0  0  0  0
   10.4868    1.5467    0.5095 C   0  0  0  0  0  0  0  0  0  0  0  0
   10.1710    2.4103    1.5268 N   0  0  0  0  0  0  0  0  0  0  0  0
   11.1721    2.8938    2.2849 C   0  0  0  0  0  0  0  0  0  0  0  0
   12.4947    2.5632    2.0910 C   0  0  0  0  0  0  0  0  0  0  0  0
   12.8082    1.6847    1.0546 C   0  0  0  0  0  0  0  0  0  0  0  0
   11.8138    1.1420    0.2128 C   0  0  0  0  0  0  0  0  0  0  0  0
   12.2146    0.2476   -0.9216 C   0  0  0  0  0  0  0  0  0  0  0  0
   11.4558   -0.8657   -1.3339 C   0  0  0  0  0  0  0  0  0  0  0  0
   11.7857   -1.6238   -2.4632 C   0  0  0  0  0  0  0  0  0  0  0  0
   12.9495   -1.3451   -3.1532 C   0  0  0  0  0  0  0  0  0  0  0  0
   13.2830   -2.0845   -4.2182 F   0  0  0  0  0  0  0  0  0  0  0  0
   13.7786   -0.3160   -2.7377 C   0  0  0  0  0  0  0  0  0  0  0  0
   13.4035    0.4832   -1.6476 C   0  0  0  0  0  0  0  0  0  0  0  0
    4.3122    3.7807    0.2122 C   0  0  0  0  0  0  0  0  0  0  0  0
    3.0217    3.3047    0.7309 C   0  0  0  0  0  0  0  0  0  0  0  0
    2.3573    4.0615    1.7097 C   0  0  0  0  0  0  0  0  0  0  0  0
    1.0692    3.7232    2.1344 C   0  0  0  0  0  0  0  0  0  0  0  0
    0.4316    2.6081    1.6006 C   0  0  0  0  0  0  0  0  0  0  0  0
    1.0850    1.8299    0.6501 C   0  0  0  0  0  0  0  0  0  0  0  0
    2.3656    2.1827    0.2111 C   0  0  0  0  0  0  0  0  0  0  0  0
    4.7046    5.0895   -0.0234 C   0  0  0  0  0  0  0  0  0  0  0  0
    7.6931    5.9341   -1.1670 H   0  0  0  0  0  0  0  0  0  0  0  0
    6.4633    7.0304   -0.6970 H   0  0  0  0  0  0  0  0  0  0  0  0
    4.8191    1.1489   -0.7600 H   0  0  0  0  0  0  0  0  0  0  0  0
    5.3705    1.2717    0.9418 H   0  0  0  0  0  0  0  0  0  0  0  0
    7.9725    2.4926    0.4543 H   0  0  0  0  0  0  0  0  0  0  0  0
    9.4424    1.2953   -1.3573 H   0  0  0  0  0  0  0  0  0  0  0  0
    9.2238   -0.0280   -0.1640 H   0  0  0  0  0  0  0  0  0  0  0  0
   10.8715    3.5749    3.0759 H   0  0  0  0  0  0  0  0  0  0  0  0
   13.2689    2.9783    2.7271 H   0  0  0  0  0  0  0  0  0  0  0  0
   13.8552    1.4249    0.9143 H   0  0  0  0  0  0  0  0  0  0  0  0
   10.5838   -1.1993   -0.7851 H   0  0  0  0  0  0  0  0  0  0  0  0
   11.1389   -2.4323   -2.7905 H   0  0  0  0  0  0  0  0  0  0  0  0
   14.7060   -0.1307   -3.2696 H   0  0  0  0  0  0  0  0  0  0  0  0
   14.0645    1.3054   -1.3801 H   0  0  0  0  0  0  0  0  0  0  0  0
    2.8289    4.9433    2.1389 H   0  0  0  0  0  0  0  0  0  0  0  0
    0.5597    4.3424    2.8682 H   0  0  0  0  0  0  0  0  0  0  0  0
   -0.5780    2.3541    1.9126 H   0  0  0  0  0  0  0  0  0  0  0  0
    0.5876    0.9621    0.2237 H   0  0  0  0  0  0  0  0  0  0  0  0
    2.8012    1.5853   -0.5818 H   0  0  0  0  0  0  0  0  0  0  0  0
    4.1068    5.9745    0.1372 H   0  0  0  0  0  0  0  0  0  0  0  0
  1  2  1  0  0  0  0
  1 31  1  0  0  0  0
  1 32  1  0  0  0  0
  2  3  2  0  0  0  0
  2 30  1  0  0  0  0
  3  4  1  0  0  0  0
  4  5  1  0  0  0  0
  4 23  1  0  0  0  0
  5  6  1  0  0  0  0
  5 33  1  0  0  0  0
  5 34  1  0  0  0  0
  6  7  2  0  0  0  0
  6  8  1  0  0  0  0
  8  9  1  0  0  0  0
  8 35  1  0  0  0  0
  9 10  1  0  0  0  0
  9 36  1  0  0  0  0
  9 37  1  0  0  0  0
 10 11  2  0  0  0  0
 10 15  1  0  0  0  0
 11 12  1  0  0  0  0
 12 13  2  0  0  0  0
 12 38  1  0  0  0  0
 13 14  1  0  0  0  0
 13 39  1  0  0  0  0
 14 15  2  0  0  0  0
 14 40  1  0  0  0  0
 15 16  1  0  0  0  0
 16 17  2  0  0  0  0
 16 22  1  0  0  0  0
 17 18  1  0  0  0  0
 17 41  1  0  0  0  0
 18 19  2  0  0  0  0
 18 42  1  0  0  0  0
 19 20  1  0  0  0  0
 19 21  1  0  0  0  0
 21 22  2  0  0  0  0
 21 43  1  0  0  0  0
 22 44  1  0  0  0  0
 23 24  1  0  0  0  0
 23 30  2  0  0  0  0
 24 25  2  0  0  0  0
 24 29  1  0  0  0  0
 25 26  1  0  0  0  0
 25 45  1  0  0  0  0
 26 27  2  0  0  0  0
 26 46  1  0  0  0  0
 27 28  1  0  0  0  0
 27 47  1  0  0  0  0
 28 29  2  0  0  0  0
 28 48  1  0  0  0  0
 29 49  1  0  0  0  0
 30 50  1  0  0  0  0
M  END
$$$$
