
 OpenBabel01122422373D

 49 52  0  0  0  0  0  0  0  0999 V2000
    1.2046   -0.4203    0.1790 C   0  0  0  0  0  0  0  0  0  0  0  0
    2.4267    0.2824    0.0212 O   0  0  0  0  0  0  0  0  0  0  0  0
    3.0991    0.6429    1.1528 C   0  0  0  0  0  0  0  0  0  0  0  0
    2.6777    0.4843    2.4681 C   0  0  0  0  0  0  0  0  0  0  0  0
    3.4904    0.9323    3.5191 C   0  0  0  0  0  0  0  0  0  0  0  0
    4.7150    1.5679    3.2543 C   0  0  0  0  0  0  0  0  0  0  0  0
    5.3435    2.2015    4.3384 N   0  0  0  0  0  0  0  0  0  0  0  0
    5.4968    3.5655    4.5620 C   0  0  0  0  0  0  0  0  0  0  0  0
    5.8702    3.8916    5.6900 O   0  0  0  0  0  0  0  0  0  0  0  0
    5.1058    4.6057    3.5389 C   0  0  0  0  0  0  0  0  0  0  0  0
    4.0257    4.4187    2.7608 C   0  0  0  0  0  0  0  0  0  0  0  0
    3.6324    5.2969    1.7892 N   0  0  0  0  0  0  0  0  0  0  0  0
    4.2136    6.5158    1.5807 C   0  0  0  0  0  0  0  0  0  0  0  0
    3.8547    7.2690    0.6872 O   0  0  0  0  0  0  0  0  0  0  0  0
    5.2665    6.8898    2.5400 C   0  0  0  0  0  0  0  0  0  0  0  0
    5.7599    8.1969    2.5507 C   0  0  0  0  0  0  0  0  0  0  0  0
    6.7073    8.5443    3.5023 C   0  0  0  0  0  0  0  0  0  0  0  0
    7.1344    7.5645    4.3809 C   0  0  0  0  0  0  0  0  0  0  0  0
    6.6796    6.2872    4.3760 N   0  0  0  0  0  0  0  0  0  0  0  0
    5.7253    5.9545    3.4724 C   0  0  0  0  0  0  0  0  0  0  0  0
    5.1862    1.6445    1.9357 C   0  0  0  0  0  0  0  0  0  0  0  0
    6.4628    2.1160    1.7105 O   0  0  0  0  0  0  0  0  0  0  0  0
    7.0125    1.6379    0.4738 C   0  0  0  0  0  0  0  0  0  0  0  0
    8.5141    1.6904    0.3877 C   0  0  0  0  0  0  0  0  0  0  0  0
    9.1816    0.6546   -0.2907 C   0  0  0  0  0  0  0  0  0  0  0  0
   10.5568    0.7112   -0.5015 C   0  0  0  0  0  0  0  0  0  0  0  0
   11.2791    1.8072   -0.0442 C   0  0  0  0  0  0  0  0  0  0  0  0
   10.6286    2.8414    0.6305 C   0  0  0  0  0  0  0  0  0  0  0  0
    9.2494    2.7861    0.8474 C   0  0  0  0  0  0  0  0  0  0  0  0
    4.3396    1.2263    0.8987 C   0  0  0  0  0  0  0  0  0  0  0  0
    0.9187   -0.8047   -0.8051 H   0  0  0  0  0  0  0  0  0  0  0  0
    0.4184    0.2589    0.5209 H   0  0  0  0  0  0  0  0  0  0  0  0
    1.3113   -1.2784    0.8493 H   0  0  0  0  0  0  0  0  0  0  0  0
    1.7084    0.0593    2.7082 H   0  0  0  0  0  0  0  0  0  0  0  0
    3.1126    0.8673    4.5372 H   0  0  0  0  0  0  0  0  0  0  0  0
    5.3218    1.7300    5.2312 H   0  0  0  0  0  0  0  0  0  0  0  0
    3.3887    3.5494    2.8181 H   0  0  0  0  0  0  0  0  0  0  0  0
    2.8860    5.0425    1.1512 H   0  0  0  0  0  0  0  0  0  0  0  0
    5.3845    8.9324    1.8443 H   0  0  0  0  0  0  0  0  0  0  0  0
    7.0915    9.5567    3.5598 H   0  0  0  0  0  0  0  0  0  0  0  0
    7.8717    7.7876    5.1481 H   0  0  0  0  0  0  0  0  0  0  0  0
    6.6188    2.2445   -0.3517 H   0  0  0  0  0  0  0  0  0  0  0  0
    6.7261    0.5869    0.3290 H   0  0  0  0  0  0  0  0  0  0  0  0
    8.6265   -0.1991   -0.6746 H   0  0  0  0  0  0  0  0  0  0  0  0
   11.0562   -0.0957   -1.0338 H   0  0  0  0  0  0  0  0  0  0  0  0
   12.3502    1.8591   -0.2187 H   0  0  0  0  0  0  0  0  0  0  0  0
   11.1960    3.6994    0.9807 H   0  0  0  0  0  0  0  0  0  0  0  0
    8.7515    3.6068    1.3602 H   0  0  0  0  0  0  0  0  0  0  0  0
    4.6188    1.3460   -0.1439 H   0  0  0  0  0  0  0  0  0  0  0  0
  1  2  1  0  0  0  0
  1 31  1  0  0  0  0
  1 32  1  0  0  0  0
  1 33  1  0  0  0  0
  2  3  1  0  0  0  0
  3  4  2  0  0  0  0
  3 30  1  0  0  0  0
  4  5  1  0  0  0  0
  4 34  1  0  0  0  0
  5  6  2  0  0  0  0
  5 35  1  0  0  0  0
  6  7  1  0  0  0  0
  6 21  1  0  0  0  0
  7  8  1  0  0  0  0
  7 36  1  0  0  0  0
  8  9  2  0  0  0  0
  8 10  1  0  0  0  0
 10 11  2  0  0  0  0
 10 20  1  0  0  0  0
 11 12  1  0  0  0  0
 11 37  1  0  0  0  0
 12 13  1  0  0  0  0
 12 38  1  0  0  0  0
 13 14  2  0  0  0  0
 13 15  1  0  0  0  0
 15 16  2  0  0  0  0
 15 20  1  0  0  0  0
 16 17  1  0  0  0  0
 16 39  1  0  0  0  0
 17 18  2  0  0  0  0
 17 40  1  0  0  0  0
 18 19  1  0  0  0  0
 18 41  1  0  0  0  0
 19 20  2  0  0  0  0
 21 22  1  0  0  0  0
 21 30  2  0  0  0  0
 22 23  1  0  0  0  0
 23 24  1  0  0  0  0
 23 42  1  0  0  0  0
 23 43  1  0  0  0  0
 24 25  2  0  0  0  0
 24 29  1  0  0  0  0
 25 26  1  0  0  0  0
 25 44  1  0  0  0  0
 26 27  2  0  0  0  0
 26 45  1  0  0  0  0
 27 28  1  0  0  0  0
 27 46  1  0  0  0  0
 28 29  2  0  0  0  0
 28 47  1  0  0  0  0
 29 48  1  0  0  0  0
 30 49  1  0  0  0  0
M  END
$$$$
