
 OpenBabel01122422373D

 46 49  0  0  0  0  0  0  0  0999 V2000
    1.2956   -0.6907   -0.7888 C   0  0  0  0  0  0  0  0  0  0  0  0
    2.3806   -0.0054   -0.1708 O   0  0  0  0  0  0  0  0  0  0  0  0
    3.0382   -0.6517    0.8407 C   0  0  0  0  0  0  0  0  0  0  0  0
    2.6694   -1.9132    1.3031 C   0  0  0  0  0  0  0  0  0  0  0  0
    3.4179   -2.5642    2.2840 C   0  0  0  0  0  0  0  0  0  0  0  0
    4.5738   -1.9945    2.8146 C   0  0  0  0  0  0  0  0  0  0  0  0
    5.3953   -2.6612    3.7619 N   0  0  0  0  0  0  0  0  0  0  0  0
    5.1594   -3.9294    4.2764 C   0  0  0  0  0  0  0  0  0  0  0  0
    4.2090   -4.6593    4.0047 O   0  0  0  0  0  0  0  0  0  0  0  0
    6.1362   -4.4967    5.2330 C   0  0  0  0  0  0  0  0  0  0  0  0
    6.9398   -3.7298    6.0656 C   0  0  0  0  0  0  0  0  0  0  0  0
    7.7929   -4.2575    6.9808 N   0  0  0  0  0  0  0  0  0  0  0  0
    7.8242   -5.6167    7.0850 C   0  0  0  0  0  0  0  0  0  0  0  0
    8.7244   -6.2350    8.0869 C   0  0  0  0  0  0  0  0  0  0  0  0
    9.4538   -5.5732    8.8161 O   0  0  0  0  0  0  0  0  0  0  0  0
    8.6936   -7.6146    8.1509 N   0  0  0  0  0  0  0  0  0  0  0  0
    7.9160   -8.4416    7.3924 N   0  0  0  0  0  0  0  0  0  0  0  0
    7.1334   -7.8867    6.5183 C   0  0  0  0  0  0  0  0  0  0  0  0
    7.0456   -6.4490    6.3102 C   0  0  0  0  0  0  0  0  0  0  0  0
    6.1915   -5.8929    5.3671 C   0  0  0  0  0  0  0  0  0  0  0  0
    4.9337   -0.7119    2.3815 C   0  0  0  0  0  0  0  0  0  0  0  0
    4.1496   -0.0214    1.4270 C   0  0  0  0  0  0  0  0  0  0  0  0
    4.5743    1.3638    1.0678 C   0  0  0  0  0  0  0  0  0  0  0  0
    5.7787    1.6147    1.0299 O   0  0  0  0  0  0  0  0  0  0  0  0
    3.5970    2.4651    0.8151 C   0  0  0  0  0  0  0  0  0  0  0  0
    3.9766    3.5270   -0.0176 C   0  0  0  0  0  0  0  0  0  0  0  0
    3.0889    4.5769   -0.2725 C   0  0  0  0  0  0  0  0  0  0  0  0
    1.8196    4.5743    0.3044 C   0  0  0  0  0  0  0  0  0  0  0  0
    1.4408    3.5313    1.1478 C   0  0  0  0  0  0  0  0  0  0  0  0
    2.3313    2.4883    1.4165 C   0  0  0  0  0  0  0  0  0  0  0  0
    0.8604   -0.0280   -1.5417 H   0  0  0  0  0  0  0  0  0  0  0  0
    0.5083   -0.9247   -0.0636 H   0  0  0  0  0  0  0  0  0  0  0  0
    1.6467   -1.5957   -1.2970 H   0  0  0  0  0  0  0  0  0  0  0  0
    1.8033   -2.4433    0.9211 H   0  0  0  0  0  0  0  0  0  0  0  0
    3.0596   -3.5421    2.5851 H   0  0  0  0  0  0  0  0  0  0  0  0
    6.2473   -2.1752    4.0139 H   0  0  0  0  0  0  0  0  0  0  0  0
    6.9143   -2.6444    6.0617 H   0  0  0  0  0  0  0  0  0  0  0  0
    9.3006   -8.0607    8.8304 H   0  0  0  0  0  0  0  0  0  0  0  0
    6.4953   -8.5396    5.8989 H   0  0  0  0  0  0  0  0  0  0  0  0
    5.5587   -6.5299    4.7514 H   0  0  0  0  0  0  0  0  0  0  0  0
    5.8218   -0.2228    2.7784 H   0  0  0  0  0  0  0  0  0  0  0  0
    4.9642    3.5381   -0.4741 H   0  0  0  0  0  0  0  0  0  0  0  0
    3.3884    5.3965   -0.9214 H   0  0  0  0  0  0  0  0  0  0  0  0
    1.1278    5.3886    0.1019 H   0  0  0  0  0  0  0  0  0  0  0  0
    0.4517    3.5295    1.5989 H   0  0  0  0  0  0  0  0  0  0  0  0
    2.0161    1.6965    2.0894 H   0  0  0  0  0  0  0  0  0  0  0  0
  1  2  1  0  0  0  0
  1 31  1  0  0  0  0
  1 32  1  0  0  0  0
  1 33  1  0  0  0  0
  2  3  1  0  0  0  0
  3  4  2  0  0  0  0
  3 22  1  0  0  0  0
  4  5  1  0  0  0  0
  4 34  1  0  0  0  0
  5  6  2  0  0  0  0
  5 35  1  0  0  0  0
  6  7  1  0  0  0  0
  6 21  1  0  0  0  0
  7  8  1  0  0  0  0
  7 36  1  0  0  0  0
  8  9  2  0  0  0  0
  8 10  1  0  0  0  0
 10 11  2  0  0  0  0
 10 20  1  0  0  0  0
 11 12  1  0  0  0  0
 11 37  1  0  0  0  0
 12 13  2  0  0  0  0
 13 14  1  0  0  0  0
 13 19  1  0  0  0  0
 14 15  2  0  0  0  0
 14 16  1  0  0  0  0
 16 17  1  0  0  0  0
 16 38  1  0  0  0  0
 17 18  2  0  0  0  0
 18 19  1  0  0  0  0
 18 39  1  0  0  0  0
 19 20  2  0  0  0  0
 20 40  1  0  0  0  0
 21 22  2  0  0  0  0
 21 41  1  0  0  0  0
 22 23  1  0  0  0  0
 23 24  2  0  0  0  0
 23 25  1  0  0  0  0
 25 26  2  0  0  0  0
 25 30  1  0  0  0  0
 26 27  1  0  0  0  0
 26 42  1  0  0  0  0
 27 28  2  0  0  0  0
 27 43  1  0  0  0  0
 28 29  1  0  0  0  0
 28 44  1  0  0  0  0
 29 30  2  0  0  0  0
 29 45  1  0  0  0  0
 30 46  1  0  0  0  0
M  END
$$$$
