
 OpenBabel01122422373D

 45 48  0  0  0  0  0  0  0  0999 V2000
   -0.0048   -0.2847    0.8955 N   0  0  0  0  0  0  0  0  0  0  0  0
    1.2270   -0.1838    0.6452 C   0  0  0  0  0  0  0  0  0  0  0  0
    2.7118   -0.0621    0.3436 C   0  0  0  0  0  0  0  0  0  0  0  0
    3.4040    0.3226    1.5738 N   0  0  0  0  0  0  0  0  0  0  0  0
    3.6050    1.6196    2.0070 C   0  0  0  0  0  0  0  0  0  0  0  0
    4.1421    1.5848    3.2875 C   0  0  0  0  0  0  0  0  0  0  0  0
    4.4811    2.6974    4.1821 C   0  0  0  0  0  0  0  0  0  0  0  0
    4.9746    2.4990    5.2941 O   0  0  0  0  0  0  0  0  0  0  0  0
    4.1499    3.9933    3.7627 N   0  0  0  0  0  0  0  0  0  0  0  0
    4.4684    5.1207    4.5274 C   0  0  0  0  0  0  0  0  0  0  0  0
    5.6998    5.3950    5.0183 C   0  0  0  0  0  0  0  0  0  0  0  0
    6.8629    4.4755    4.6835 C   0  0  0  0  0  0  0  0  0  0  0  0
    7.8278    3.7127    4.4056 N   0  0  0  0  0  0  0  0  0  0  0  0
    5.9393    6.5091    5.9627 C   0  0  0  0  0  0  0  0  0  0  0  0
    7.0868    6.7365    6.3429 O   0  0  0  0  0  0  0  0  0  0  0  0
    4.7977    7.2507    6.3244 N   0  0  0  0  0  0  0  0  0  0  0  0
    4.9729    8.3259    7.2498 C   0  0  0  0  0  0  0  0  0  0  0  0
    4.4671    9.5952    6.9504 C   0  0  0  0  0  0  0  0  0  0  0  0
    4.7263   10.6730    7.7991 C   0  0  0  0  0  0  0  0  0  0  0  0
    5.4543   10.4800    8.9731 C   0  0  0  0  0  0  0  0  0  0  0  0
    5.9268    9.2117    9.3009 C   0  0  0  0  0  0  0  0  0  0  0  0
    5.6968    8.1407    8.4368 C   0  0  0  0  0  0  0  0  0  0  0  0
    3.5606    6.9983    5.7409 C   0  0  0  0  0  0  0  0  0  0  0  0
    3.3769    6.0078    4.8576 C   0  0  0  0  0  0  0  0  0  0  0  0
    4.3270    0.1846    3.5979 C   0  0  0  0  0  0  0  0  0  0  0  0
    4.8533   -0.5055    4.7156 C   0  0  0  0  0  0  0  0  0  0  0  0
    4.8538   -1.9030    4.7461 C   0  0  0  0  0  0  0  0  0  0  0  0
    4.3340   -2.6285    3.6827 C   0  0  0  0  0  0  0  0  0  0  0  0
    3.8195   -1.9790    2.5574 C   0  0  0  0  0  0  0  0  0  0  0  0
    3.8375   -0.5725    2.5305 C   0  0  0  0  0  0  0  0  0  0  0  0
    2.8909    0.7211   -0.3998 H   0  0  0  0  0  0  0  0  0  0  0  0
    3.1293   -1.0032   -0.0234 H   0  0  0  0  0  0  0  0  0  0  0  0
    3.3285    2.4554    1.3785 H   0  0  0  0  0  0  0  0  0  0  0  0
    3.3380    4.0333    3.1596 H   0  0  0  0  0  0  0  0  0  0  0  0
    3.9398    9.7764    6.0181 H   0  0  0  0  0  0  0  0  0  0  0  0
    4.3857   11.6681    7.5295 H   0  0  0  0  0  0  0  0  0  0  0  0
    5.6656   11.3227    9.6269 H   0  0  0  0  0  0  0  0  0  0  0  0
    6.4916    9.0570   10.2166 H   0  0  0  0  0  0  0  0  0  0  0  0
    6.0845    7.1592    8.7044 H   0  0  0  0  0  0  0  0  0  0  0  0
    2.7246    7.6099    6.0701 H   0  0  0  0  0  0  0  0  0  0  0  0
    2.3854    5.8101    4.4618 H   0  0  0  0  0  0  0  0  0  0  0  0
    5.2599    0.0456    5.5613 H   0  0  0  0  0  0  0  0  0  0  0  0
    5.2573   -2.4196    5.6137 H   0  0  0  0  0  0  0  0  0  0  0  0
    4.3271   -3.7152    3.7274 H   0  0  0  0  0  0  0  0  0  0  0  0
    3.4142   -2.5667    1.7400 H   0  0  0  0  0  0  0  0  0  0  0  0
  1  2  3  0  0  0  0
  2  3  1  0  0  0  0
  3  4  1  0  0  0  0
  3 31  1  0  0  0  0
  3 32  1  0  0  0  0
  4  5  1  0  0  0  0
  4 30  1  0  0  0  0
  5  6  2  0  0  0  0
  5 33  1  0  0  0  0
  6  7  1  0  0  0  0
  6 25  1  0  0  0  0
  7  8  2  0  0  0  0
  7  9  1  0  0  0  0
  9 10  1  0  0  0  0
  9 34  1  0  0  0  0
 10 11  2  0  0  0  0
 10 24  1  0  0  0  0
 11 12  1  0  0  0  0
 11 14  1  0  0  0  0
 12 13  3  0  0  0  0
 14 15  2  0  0  0  0
 14 16  1  0  0  0  0
 16 17  1  0  0  0  0
 16 23  1  0  0  0  0
 17 18  2  0  0  0  0
 17 22  1  0  0  0  0
 18 19  1  0  0  0  0
 18 35  1  0  0  0  0
 19 20  2  0  0  0  0
 19 36  1  0  0  0  0
 20 21  1  0  0  0  0
 20 37  1  0  0  0  0
 21 22  2  0  0  0  0
 21 38  1  0  0  0  0
 22 39  1  0  0  0  0
 23 24  2  0  0  0  0
 23 40  1  0  0  0  0
 24 41  1  0  0  0  0
 25 26  2  0  0  0  0
 25 30  1  0  0  0  0
 26 27  1  0  0  0  0
 26 42  1  0  0  0  0
 27 28  2  0  0  0  0
 27 43  1  0  0  0  0
 28 29  1  0  0  0  0
 28 44  1  0  0  0  0
 29 30  2  0  0  0  0
 29 45  1  0  0  0  0
M  END
$$$$
