
 OpenBabel01122422373D

 48 51  0  0  0  0  0  0  0  0999 V2000
    2.0179   -1.2047   -0.2130 O   0  0  0  0  0  0  0  0  0  0  0  0
    2.2261   -0.0141   -0.0182 C   0  0  0  0  0  0  0  0  0  0  0  0
    2.9966    0.5342    1.1684 C   0  0  0  0  0  0  0  0  0  0  0  0
    2.1021    0.8405    2.2312 O   0  0  0  0  0  0  0  0  0  0  0  0
    2.6690    1.2812    3.4000 C   0  0  0  0  0  0  0  0  0  0  0  0
    4.0387    1.4410    3.6264 C   0  0  0  0  0  0  0  0  0  0  0  0
    4.5014    1.8715    4.8714 C   0  0  0  0  0  0  0  0  0  0  0  0
    3.5995    2.1582    5.8923 C   0  0  0  0  0  0  0  0  0  0  0  0
    2.2258    2.0642    5.6597 C   0  0  0  0  0  0  0  0  0  0  0  0
    1.2764    2.3516    6.6182 O   0  0  0  0  0  0  0  0  0  0  0  0
    1.5001    3.4410    7.4576 C   0  0  0  0  0  0  0  0  0  0  0  0
    0.8575    3.4238    8.6872 C   0  0  0  0  0  0  0  0  0  0  0  0
    1.0810    4.4834    9.5646 C   0  0  0  0  0  0  0  0  0  0  0  0
    1.9281    5.5188    9.1830 C   0  0  0  0  0  0  0  0  0  0  0  0
    2.5035    5.4632    7.9253 C   0  0  0  0  0  0  0  0  0  0  0  0
    2.2970    4.4573    7.0511 N   0  0  0  0  0  0  0  0  0  0  0  0
    1.7662    1.5900    4.4257 C   0  0  0  0  0  0  0  0  0  0  0  0
    1.7920    0.9958   -0.8193 O   0  0  0  0  0  0  0  0  0  0  0  0
    1.0394    0.6117   -1.9744 C   0  0  0  0  0  0  0  0  0  0  0  0
   -0.2720    1.2943   -1.8692 C   0  0  0  0  0  0  0  0  0  0  0  0
   -0.9045    2.2210   -2.6659 C   0  0  0  0  0  0  0  0  0  0  0  0
   -2.1461    2.4959   -2.0302 C   0  0  0  0  0  0  0  0  0  0  0  0
   -3.1908    3.4178   -2.4654 C   0  0  0  0  0  0  0  0  0  0  0  0
   -3.4112    3.6644   -3.8216 C   0  0  0  0  0  0  0  0  0  0  0  0
   -4.4112    4.5548   -4.1762 C   0  0  0  0  0  0  0  0  0  0  0  0
   -5.1850    5.2112   -3.2871 N   0  0  0  0  0  0  0  0  0  0  0  0
   -4.9572    4.9552   -1.9809 C   0  0  0  0  0  0  0  0  0  0  0  0
   -3.9883    4.0778   -1.5257 C   0  0  0  0  0  0  0  0  0  0  0  0
   -2.2645    1.7728   -0.9035 N   0  0  0  0  0  0  0  0  0  0  0  0
   -1.1368    1.0525   -0.8393 N   0  0  0  0  0  0  0  0  0  0  0  0
    3.5453    1.4271    0.8441 H   0  0  0  0  0  0  0  0  0  0  0  0
    3.7166   -0.2395    1.4630 H   0  0  0  0  0  0  0  0  0  0  0  0
    4.7801    1.2379    2.8615 H   0  0  0  0  0  0  0  0  0  0  0  0
    5.5672    1.9928    5.0466 H   0  0  0  0  0  0  0  0  0  0  0  0
    3.9789    2.4860    6.8562 H   0  0  0  0  0  0  0  0  0  0  0  0
    0.2089    2.6002    8.9628 H   0  0  0  0  0  0  0  0  0  0  0  0
    0.6035    4.4995   10.5403 H   0  0  0  0  0  0  0  0  0  0  0  0
    2.1341    6.3509    9.8470 H   0  0  0  0  0  0  0  0  0  0  0  0
    3.1723    6.2451    7.5773 H   0  0  0  0  0  0  0  0  0  0  0  0
    0.6987    1.4737    4.2586 H   0  0  0  0  0  0  0  0  0  0  0  0
    0.9007   -0.4695   -2.0800 H   0  0  0  0  0  0  0  0  0  0  0  0
    1.5842    0.9653   -2.8575 H   0  0  0  0  0  0  0  0  0  0  0  0
   -0.5202    2.6592   -3.5758 H   0  0  0  0  0  0  0  0  0  0  0  0
   -2.8381    3.1646   -4.5929 H   0  0  0  0  0  0  0  0  0  0  0  0
   -4.6244    4.7679   -5.2199 H   0  0  0  0  0  0  0  0  0  0  0  0
   -5.5944    5.4932   -1.2848 H   0  0  0  0  0  0  0  0  0  0  0  0
   -3.8543    3.9143   -0.4609 H   0  0  0  0  0  0  0  0  0  0  0  0
   -1.0138    0.4184   -0.0560 H   0  0  0  0  0  0  0  0  0  0  0  0
  1  2  2  0  0  0  0
  2  3  1  0  0  0  0
  2 18  1  0  0  0  0
  3  4  1  0  0  0  0
  3 31  1  0  0  0  0
  3 32  1  0  0  0  0
  4  5  1  0  0  0  0
  5  6  2  0  0  0  0
  5 17  1  0  0  0  0
  6  7  1  0  0  0  0
  6 33  1  0  0  0  0
  7  8  2  0  0  0  0
  7 34  1  0  0  0  0
  8  9  1  0  0  0  0
  8 35  1  0  0  0  0
  9 10  1  0  0  0  0
  9 17  2  0  0  0  0
 10 11  1  0  0  0  0
 11 12  2  0  0  0  0
 11 16  1  0  0  0  0
 12 13  1  0  0  0  0
 12 36  1  0  0  0  0
 13 14  2  0  0  0  0
 13 37  1  0  0  0  0
 14 15  1  0  0  0  0
 14 38  1  0  0  0  0
 15 16  2  0  0  0  0
 15 39  1  0  0  0  0
 17 40  1  0  0  0  0
 18 19  1  0  0  0  0
 19 20  1  0  0  0  0
 19 41  1  0  0  0  0
 19 42  1  0  0  0  0
 20 21  2  0  0  0  0
 20 30  1  0  0  0  0
 21 22  1  0  0  0  0
 21 43  1  0  0  0  0
 22 23  1  0  0  0  0
 22 29  2  0  0  0  0
 23 24  2  0  0  0  0
 23 28  1  0  0  0  0
 24 25  1  0  0  0  0
 24 44  1  0  0  0  0
 25 26  2  0  0  0  0
 25 45  1  0  0  0  0
 26 27  1  0  0  0  0
 27 28  2  0  0  0  0
 27 46  1  0  0  0  0
 28 47  1  0  0  0  0
 29 30  1  0  0  0  0
 30 48  1  0  0  0  0
M  END
$$$$
