
 OpenBabel01122422373D

 49 52  0  0  0  0  0  0  0  0999 V2000
    2.4974   -0.8109    0.8068 O   0  0  0  0  0  0  0  0  0  0  0  0
    2.1859   -0.0438   -0.1000 C   0  0  0  0  0  0  0  0  0  0  0  0
    0.8527    0.2245   -0.3335 N   0  0  0  0  0  0  0  0  0  0  0  0
    0.2238    0.8676   -1.4251 C   0  0  0  0  0  0  0  0  0  0  0  0
    0.9064    1.5281   -2.4464 C   0  0  0  0  0  0  0  0  0  0  0  0
    0.2364    2.0926   -3.5236 C   0  0  0  0  0  0  0  0  0  0  0  0
   -1.1473    2.0034   -3.6317 C   0  0  0  0  0  0  0  0  0  0  0  0
   -1.7813    2.6309   -4.7823 C   0  0  0  0  0  0  0  0  0  0  0  0
   -1.2701    2.8154   -6.0116 C   0  0  0  0  0  0  0  0  0  0  0  0
   -2.1548    3.5534   -6.7499 N   0  0  0  0  0  0  0  0  0  0  0  0
   -3.2714    3.8465   -5.9574 C   0  0  0  0  0  0  0  0  0  0  0  0
   -4.2393    4.5114   -6.2653 O   0  0  0  0  0  0  0  0  0  0  0  0
   -3.0115    3.2314   -4.7333 N   0  0  0  0  0  0  0  0  0  0  0  0
   -1.8528    1.3600   -2.6074 C   0  0  0  0  0  0  0  0  0  0  0  0
   -1.1725    0.8013   -1.5107 C   0  0  0  0  0  0  0  0  0  0  0  0
    3.0622    0.6523   -0.8747 N   0  0  0  0  0  0  0  0  0  0  0  0
    4.4336    0.4338   -0.8683 C   0  0  0  0  0  0  0  0  0  0  0  0
    5.1103    1.4610   -0.3037 N   0  0  0  0  0  0  0  0  0  0  0  0
    6.4507    1.4063   -0.3494 C   0  0  0  0  0  0  0  0  0  0  0  0
    7.1512    0.3932   -0.9772 C   0  0  0  0  0  0  0  0  0  0  0  0
    6.4335   -0.6198   -1.6185 C   0  0  0  0  0  0  0  0  0  0  0  0
    5.0381   -0.5938   -1.6057 C   0  0  0  0  0  0  0  0  0  0  0  0
    4.2466   -1.4587   -2.3198 O   0  0  0  0  0  0  0  0  0  0  0  0
    4.7930   -1.9638   -3.5499 C   0  0  0  0  0  0  0  0  0  0  0  0
    3.7350   -2.1527   -4.6258 C   0  0  0  0  0  0  0  0  0  0  0  0
    2.3875   -1.8296   -4.4191 C   0  0  0  0  0  0  0  0  0  0  0  0
    1.4557   -1.9576   -5.4537 C   0  0  0  0  0  0  0  0  0  0  0  0
    1.8562   -2.4122   -6.7086 C   0  0  0  0  0  0  0  0  0  0  0  0
    3.1881   -2.7557   -6.9269 C   0  0  0  0  0  0  0  0  0  0  0  0
    4.1202   -2.6306   -5.8923 C   0  0  0  0  0  0  0  0  0  0  0  0
    0.2559   -0.2468    0.3358 H   0  0  0  0  0  0  0  0  0  0  0  0
    1.9778    1.6472   -2.4900 H   0  0  0  0  0  0  0  0  0  0  0  0
    0.8312    2.6099   -4.2729 H   0  0  0  0  0  0  0  0  0  0  0  0
   -0.3171    2.5053   -6.4162 H   0  0  0  0  0  0  0  0  0  0  0  0
   -2.0229    3.9031   -7.6858 H   0  0  0  0  0  0  0  0  0  0  0  0
   -3.6125    3.3157   -3.9301 H   0  0  0  0  0  0  0  0  0  0  0  0
   -2.9348    1.2616   -2.6586 H   0  0  0  0  0  0  0  0  0  0  0  0
   -1.7515    0.2928   -0.7420 H   0  0  0  0  0  0  0  0  0  0  0  0
    2.9081    1.6320   -0.6839 H   0  0  0  0  0  0  0  0  0  0  0  0
    6.9574    2.2329    0.1405 H   0  0  0  0  0  0  0  0  0  0  0  0
    8.2348    0.4080   -0.9868 H   0  0  0  0  0  0  0  0  0  0  0  0
    6.9850   -1.3993   -2.1345 H   0  0  0  0  0  0  0  0  0  0  0  0
    5.2667   -2.9317   -3.3455 H   0  0  0  0  0  0  0  0  0  0  0  0
    5.5367   -1.2744   -3.9705 H   0  0  0  0  0  0  0  0  0  0  0  0
    2.0483   -1.4695   -3.4499 H   0  0  0  0  0  0  0  0  0  0  0  0
    0.4150   -1.6976   -5.2767 H   0  0  0  0  0  0  0  0  0  0  0  0
    1.1306   -2.5000   -7.5136 H   0  0  0  0  0  0  0  0  0  0  0  0
    3.5008   -3.1162   -7.9040 H   0  0  0  0  0  0  0  0  0  0  0  0
    5.1561   -2.9023   -6.0874 H   0  0  0  0  0  0  0  0  0  0  0  0
  1  2  2  0  0  0  0
  2  3  1  0  0  0  0
  2 16  1  0  0  0  0
  3  4  1  0  0  0  0
  3 31  1  0  0  0  0
  4  5  2  0  0  0  0
  4 15  1  0  0  0  0
  5  6  1  0  0  0  0
  5 32  1  0  0  0  0
  6  7  2  0  0  0  0
  6 33  1  0  0  0  0
  7  8  1  0  0  0  0
  7 14  1  0  0  0  0
  8  9  2  0  0  0  0
  8 13  1  0  0  0  0
  9 10  1  0  0  0  0
  9 34  1  0  0  0  0
 10 11  1  0  0  0  0
 10 35  1  0  0  0  0
 11 12  2  0  0  0  0
 11 13  1  0  0  0  0
 13 36  1  0  0  0  0
 14 15  2  0  0  0  0
 14 37  1  0  0  0  0
 15 38  1  0  0  0  0
 16 17  1  0  0  0  0
 16 39  1  0  0  0  0
 17 18  2  0  0  0  0
 17 22  1  0  0  0  0
 18 19  1  0  0  0  0
 19 20  2  0  0  0  0
 19 40  1  0  0  0  0
 20 21  1  0  0  0  0
 20 41  1  0  0  0  0
 21 22  2  0  0  0  0
 21 42  1  0  0  0  0
 22 23  1  0  0  0  0
 23 24  1  0  0  0  0
 24 25  1  0  0  0  0
 24 43  1  0  0  0  0
 24 44  1  0  0  0  0
 25 26  2  0  0  0  0
 25 30  1  0  0  0  0
 26 27  1  0  0  0  0
 26 45  1  0  0  0  0
 27 28  2  0  0  0  0
 27 46  1  0  0  0  0
 28 29  1  0  0  0  0
 28 47  1  0  0  0  0
 29 30  2  0  0  0  0
 29 48  1  0  0  0  0
 30 49  1  0  0  0  0
M  END
$$$$
