
 OpenBabel01122422373D

 51 54  0  0  0  0  0  0  0  0999 V2000
    1.1638    1.3967    0.0681 O   0  0  0  0  0  0  0  0  0  0  0  0
    2.2843    0.8885    0.0308 C   0  0  0  0  0  0  0  0  0  0  0  0
    2.9032    0.3581    1.1366 N   0  0  0  0  0  0  0  0  0  0  0  0
    2.2705    0.4231    2.4341 C   0  0  0  0  0  0  0  0  0  0  0  0
    3.2706    0.4088    3.5660 C   0  0  0  0  0  0  0  0  0  0  0  0
    3.2372   -0.6794    4.4608 C   0  0  0  0  0  0  0  0  0  0  0  0
    4.1136   -0.7537    5.5425 C   0  0  0  0  0  0  0  0  0  0  0  0
    5.0402    0.2593    5.7513 C   0  0  0  0  0  0  0  0  0  0  0  0
    5.0796    1.3525    4.8870 C   0  0  0  0  0  0  0  0  0  0  0  0
    4.2049    1.4488    3.7868 C   0  0  0  0  0  0  0  0  0  0  0  0
    4.2996    2.6947    2.9258 C   0  0  0  0  0  0  0  0  0  0  0  0
    3.5713    3.7546    3.5460 O   0  0  0  0  0  0  0  0  0  0  0  0
    3.4489    4.9314    2.8486 C   0  0  0  0  0  0  0  0  0  0  0  0
    4.1460    5.2340    1.6719 C   0  0  0  0  0  0  0  0  0  0  0  0
    3.9318    6.4475    1.0069 C   0  0  0  0  0  0  0  0  0  0  0  0
    3.0161    7.3709    1.5045 C   0  0  0  0  0  0  0  0  0  0  0  0
    2.3377    7.0973    2.6900 C   0  0  0  0  0  0  0  0  0  0  0  0
    2.5645    5.8931    3.3665 C   0  0  0  0  0  0  0  0  0  0  0  0
    1.7312    5.6404    4.8611 Cl  0  0  0  0  0  0  0  0  0  0  0  0
    3.0730    0.8573   -1.1870 C   0  0  0  0  0  0  0  0  0  0  0  0
    2.7220    1.4168   -2.3993 C   0  0  0  0  0  0  0  0  0  0  0  0
    3.8047    1.1947   -3.1968 N   0  0  0  0  0  0  0  0  0  0  0  0
    4.0167    1.6747   -4.5493 C   0  0  0  0  0  0  0  0  0  0  0  0
    3.4470    0.7238   -5.5589 C   0  0  0  0  0  0  0  0  0  0  0  0
    2.1405    0.8546   -6.0422 C   0  0  0  0  0  0  0  0  0  0  0  0
    1.6403   -0.0843   -6.9396 C   0  0  0  0  0  0  0  0  0  0  0  0
    2.4676   -1.1229   -7.3312 C   0  0  0  0  0  0  0  0  0  0  0  0
    3.7364   -1.2741   -6.8968 N   0  0  0  0  0  0  0  0  0  0  0  0
    4.1947   -0.3568   -6.0170 C   0  0  0  0  0  0  0  0  0  0  0  0
    4.7709    0.5305   -2.5347 N   0  0  0  0  0  0  0  0  0  0  0  0
    4.3298    0.3118   -1.2989 N   0  0  0  0  0  0  0  0  0  0  0  0
    3.7609   -0.1673    1.0136 H   0  0  0  0  0  0  0  0  0  0  0  0
    1.6010   -0.4430    2.4923 H   0  0  0  0  0  0  0  0  0  0  0  0
    1.6396    1.3159    2.5129 H   0  0  0  0  0  0  0  0  0  0  0  0
    2.5100   -1.4791    4.3281 H   0  0  0  0  0  0  0  0  0  0  0  0
    4.0652   -1.5974    6.2259 H   0  0  0  0  0  0  0  0  0  0  0  0
    5.7246    0.2071    6.5938 H   0  0  0  0  0  0  0  0  0  0  0  0
    5.7972    2.1480    5.0816 H   0  0  0  0  0  0  0  0  0  0  0  0
    3.9238    2.5078    1.9177 H   0  0  0  0  0  0  0  0  0  0  0  0
    5.3576    2.9751    2.8415 H   0  0  0  0  0  0  0  0  0  0  0  0
    4.8716    4.5502    1.2435 H   0  0  0  0  0  0  0  0  0  0  0  0
    4.4825    6.6702    0.0956 H   0  0  0  0  0  0  0  0  0  0  0  0
    2.8376    8.3045    0.9764 H   0  0  0  0  0  0  0  0  0  0  0  0
    1.6336    7.8253    3.0855 H   0  0  0  0  0  0  0  0  0  0  0  0
    1.8414    1.9502   -2.7210 H   0  0  0  0  0  0  0  0  0  0  0  0
    5.0927    1.8217   -4.6989 H   0  0  0  0  0  0  0  0  0  0  0  0
    3.5439    2.6610   -4.6291 H   0  0  0  0  0  0  0  0  0  0  0  0
    1.5026    1.6739   -5.7192 H   0  0  0  0  0  0  0  0  0  0  0  0
    0.6268   -0.0138   -7.3188 H   0  0  0  0  0  0  0  0  0  0  0  0
    2.1205   -1.8869   -8.0210 H   0  0  0  0  0  0  0  0  0  0  0  0
    5.2140   -0.5268   -5.6768 H   0  0  0  0  0  0  0  0  0  0  0  0
  1  2  2  0  0  0  0
  2  3  1  0  0  0  0
  2 20  1  0  0  0  0
  3  4  1  0  0  0  0
  3 32  1  0  0  0  0
  4  5  1  0  0  0  0
  4 33  1  0  0  0  0
  4 34  1  0  0  0  0
  5  6  2  0  0  0  0
  5 10  1  0  0  0  0
  6  7  1  0  0  0  0
  6 35  1  0  0  0  0
  7  8  2  0  0  0  0
  7 36  1  0  0  0  0
  8  9  1  0  0  0  0
  8 37  1  0  0  0  0
  9 10  2  0  0  0  0
  9 38  1  0  0  0  0
 10 11  1  0  0  0  0
 11 12  1  0  0  0  0
 11 39  1  0  0  0  0
 11 40  1  0  0  0  0
 12 13  1  0  0  0  0
 13 14  2  0  0  0  0
 13 18  1  0  0  0  0
 14 15  1  0  0  0  0
 14 41  1  0  0  0  0
 15 16  2  0  0  0  0
 15 42  1  0  0  0  0
 16 17  1  0  0  0  0
 16 43  1  0  0  0  0
 17 18  2  0  0  0  0
 17 44  1  0  0  0  0
 18 19  1  0  0  0  0
 20 21  2  0  0  0  0
 20 31  1  0  0  0  0
 21 22  1  0  0  0  0
 21 45  1  0  0  0  0
 22 23  1  0  0  0  0
 22 30  1  0  0  0  0
 23 24  1  0  0  0  0
 23 46  1  0  0  0  0
 23 47  1  0  0  0  0
 24 25  2  0  0  0  0
 24 29  1  0  0  0  0
 25 26  1  0  0  0  0
 25 48  1  0  0  0  0
 26 27  2  0  0  0  0
 26 49  1  0  0  0  0
 27 28  1  0  0  0  0
 27 50  1  0  0  0  0
 28 29  2  0  0  0  0
 29 51  1  0  0  0  0
 30 31  2  0  0  0  0
M  END
$$$$
