
 OpenBabel01122422373D

 46 49  0  0  0  0  0  0  0  0999 V2000
    2.2382    1.0463    0.9322 C   0  0  0  0  0  0  0  0  0  0  0  0
    3.2402    0.1175    0.5339 O   0  0  0  0  0  0  0  0  0  0  0  0
    3.6480    0.1792   -0.7715 C   0  0  0  0  0  0  0  0  0  0  0  0
    3.1675    1.0741   -1.7299 C   0  0  0  0  0  0  0  0  0  0  0  0
    3.6339    1.0128   -3.0432 C   0  0  0  0  0  0  0  0  0  0  0  0
    4.5903    0.0650   -3.4008 C   0  0  0  0  0  0  0  0  0  0  0  0
    5.1403   -0.7780   -2.4297 C   0  0  0  0  0  0  0  0  0  0  0  0
    6.1525   -1.6854   -2.6777 O   0  0  0  0  0  0  0  0  0  0  0  0
    7.1156   -1.3683   -3.6119 C   0  0  0  0  0  0  0  0  0  0  0  0
    7.5704   -0.0701   -3.8398 C   0  0  0  0  0  0  0  0  0  0  0  0
    8.4458    0.1950   -4.8927 C   0  0  0  0  0  0  0  0  0  0  0  0
    8.9422   -0.8399   -5.6827 C   0  0  0  0  0  0  0  0  0  0  0  0
    9.7938   -0.6273   -6.7845 N   0  0  0  0  0  0  0  0  0  0  0  0
   10.1744    0.5773   -7.3322 C   0  0  0  0  0  0  0  0  0  0  0  0
    9.7985    1.6855   -6.9546 O   0  0  0  0  0  0  0  0  0  0  0  0
   11.1214    0.4816   -8.4963 C   0  0  0  0  0  0  0  0  0  0  0  0
   11.4596    1.6426   -9.0883 C   0  0  0  0  0  0  0  0  0  0  0  0
   12.3509    1.7022  -10.1292 N   0  0  0  0  0  0  0  0  0  0  0  0
   13.0010    0.6089  -10.6531 C   0  0  0  0  0  0  0  0  0  0  0  0
   13.8051    0.7086  -11.5671 O   0  0  0  0  0  0  0  0  0  0  0  0
   12.6703   -0.6935  -10.0447 C   0  0  0  0  0  0  0  0  0  0  0  0
   13.2801   -1.8688  -10.4845 C   0  0  0  0  0  0  0  0  0  0  0  0
   12.9312   -3.0751   -9.8865 C   0  0  0  0  0  0  0  0  0  0  0  0
   11.9791   -3.0594   -8.8812 C   0  0  0  0  0  0  0  0  0  0  0  0
   11.3712   -1.9344   -8.4345 N   0  0  0  0  0  0  0  0  0  0  0  0
   11.7354   -0.7543   -9.0129 C   0  0  0  0  0  0  0  0  0  0  0  0
    8.5833   -2.1582   -5.3688 C   0  0  0  0  0  0  0  0  0  0  0  0
    7.6673   -2.4212   -4.3409 C   0  0  0  0  0  0  0  0  0  0  0  0
    4.6373   -0.7443   -1.1275 C   0  0  0  0  0  0  0  0  0  0  0  0
    2.0195    0.8733    1.9899 H   0  0  0  0  0  0  0  0  0  0  0  0
    1.3100    0.8931    0.3707 H   0  0  0  0  0  0  0  0  0  0  0  0
    2.5954    2.0766    0.8308 H   0  0  0  0  0  0  0  0  0  0  0  0
    2.4245    1.8274   -1.4914 H   0  0  0  0  0  0  0  0  0  0  0  0
    3.2567    1.7081   -3.7887 H   0  0  0  0  0  0  0  0  0  0  0  0
    4.9221    0.0213   -4.4346 H   0  0  0  0  0  0  0  0  0  0  0  0
    7.2188    0.7637   -3.2387 H   0  0  0  0  0  0  0  0  0  0  0  0
    8.7133    1.2312   -5.0677 H   0  0  0  0  0  0  0  0  0  0  0  0
   10.1554   -1.4619   -7.2479 H   0  0  0  0  0  0  0  0  0  0  0  0
   11.0559    2.6023   -8.7684 H   0  0  0  0  0  0  0  0  0  0  0  0
   12.5841    2.6002  -10.5426 H   0  0  0  0  0  0  0  0  0  0  0  0
   14.0217   -1.8407  -11.2790 H   0  0  0  0  0  0  0  0  0  0  0  0
   13.3930   -4.0056  -10.1971 H   0  0  0  0  0  0  0  0  0  0  0  0
   11.6693   -3.9791   -8.3921 H   0  0  0  0  0  0  0  0  0  0  0  0
    8.9870   -2.9931   -5.9361 H   0  0  0  0  0  0  0  0  0  0  0  0
    7.3719   -3.4447   -4.1258 H   0  0  0  0  0  0  0  0  0  0  0  0
    5.0258   -1.4316   -0.3803 H   0  0  0  0  0  0  0  0  0  0  0  0
  1  2  1  0  0  0  0
  1 30  1  0  0  0  0
  1 31  1  0  0  0  0
  1 32  1  0  0  0  0
  2  3  1  0  0  0  0
  3  4  2  0  0  0  0
  3 29  1  0  0  0  0
  4  5  1  0  0  0  0
  4 33  1  0  0  0  0
  5  6  2  0  0  0  0
  5 34  1  0  0  0  0
  6  7  1  0  0  0  0
  6 35  1  0  0  0  0
  7  8  1  0  0  0  0
  7 29  2  0  0  0  0
  8  9  1  0  0  0  0
  9 10  2  0  0  0  0
  9 28  1  0  0  0  0
 10 11  1  0  0  0  0
 10 36  1  0  0  0  0
 11 12  2  0  0  0  0
 11 37  1  0  0  0  0
 12 13  1  0  0  0  0
 12 27  1  0  0  0  0
 13 14  1  0  0  0  0
 13 38  1  0  0  0  0
 14 15  2  0  0  0  0
 14 16  1  0  0  0  0
 16 17  2  0  0  0  0
 16 26  1  0  0  0  0
 17 18  1  0  0  0  0
 17 39  1  0  0  0  0
 18 19  1  0  0  0  0
 18 40  1  0  0  0  0
 19 20  2  0  0  0  0
 19 21  1  0  0  0  0
 21 22  2  0  0  0  0
 21 26  1  0  0  0  0
 22 23  1  0  0  0  0
 22 41  1  0  0  0  0
 23 24  2  0  0  0  0
 23 42  1  0  0  0  0
 24 25  1  0  0  0  0
 24 43  1  0  0  0  0
 25 26  2  0  0  0  0
 27 28  2  0  0  0  0
 27 44  1  0  0  0  0
 28 45  1  0  0  0  0
 29 46  1  0  0  0  0
M  END
$$$$
