
 OpenBabel01122422373D

 45 48  0  0  0  0  0  0  0  0999 V2000
    0.9054    0.0802   -0.2304 O   0  0  0  0  0  0  0  0  0  0  0  0
    2.1185    0.0523   -0.0331 C   0  0  0  0  0  0  0  0  0  0  0  0
    2.8623    1.1910    0.1820 N   0  0  0  0  0  0  0  0  0  0  0  0
    2.2566    2.5035   -0.0218 C   0  0  0  0  0  0  0  0  0  0  0  0
    2.9409    3.6656    0.7303 C   0  0  0  0  0  0  0  0  0  0  0  0
    2.9455    3.3297    2.0642 F   0  0  0  0  0  0  0  0  0  0  0  0
    4.2653    3.6952    0.3891 F   0  0  0  0  0  0  0  0  0  0  0  0
    2.2527    5.0006    0.5036 C   0  0  0  0  0  0  0  0  0  0  0  0
    1.6840    5.6879    1.5959 C   0  0  0  0  0  0  0  0  0  0  0  0
    1.0454    6.9101    1.4137 C   0  0  0  0  0  0  0  0  0  0  0  0
    0.9654    7.4581    0.1380 C   0  0  0  0  0  0  0  0  0  0  0  0
    1.5267    6.7845   -0.9574 C   0  0  0  0  0  0  0  0  0  0  0  0
    1.4431    7.3184   -2.2507 C   0  0  0  0  0  0  0  0  0  0  0  0
    1.9990    6.6327   -3.3222 C   0  0  0  0  0  0  0  0  0  0  0  0
    2.6266    5.4338   -3.0613 C   0  0  0  0  0  0  0  0  0  0  0  0
    2.7268    4.8938   -1.8276 N   0  0  0  0  0  0  0  0  0  0  0  0
    2.1863    5.5460   -0.7814 C   0  0  0  0  0  0  0  0  0  0  0  0
    2.8749   -1.2056   -0.0346 C   0  0  0  0  0  0  0  0  0  0  0  0
    4.2063   -1.2899    0.1485 N   0  0  0  0  0  0  0  0  0  0  0  0
    4.4537   -2.6148    0.0656 N   0  0  0  0  0  0  0  0  0  0  0  0
    3.3501   -3.3938   -0.1865 C   0  0  0  0  0  0  0  0  0  0  0  0
    3.3832   -4.8503   -0.3638 C   0  0  0  0  0  0  0  0  0  0  0  0
    2.1821   -5.5428   -0.5996 C   0  0  0  0  0  0  0  0  0  0  0  0
    2.1688   -6.9225   -0.8207 C   0  0  0  0  0  0  0  0  0  0  0  0
    3.3602   -7.6394   -0.8050 C   0  0  0  0  0  0  0  0  0  0  0  0
    4.5641   -6.9812   -0.5564 C   0  0  0  0  0  0  0  0  0  0  0  0
    4.5730   -5.5994   -0.3359 C   0  0  0  0  0  0  0  0  0  0  0  0
    5.7718   -4.9728   -0.0961 O   0  0  0  0  0  0  0  0  0  0  0  0
    2.3098   -2.4883   -0.2446 C   0  0  0  0  0  0  0  0  0  0  0  0
    3.8737    1.0778    0.1558 H   0  0  0  0  0  0  0  0  0  0  0  0
    1.2080    2.4466    0.2955 H   0  0  0  0  0  0  0  0  0  0  0  0
    2.2586    2.6510   -1.1046 H   0  0  0  0  0  0  0  0  0  0  0  0
    1.7411    5.2662    2.5991 H   0  0  0  0  0  0  0  0  0  0  0  0
    0.6114    7.4338    2.2624 H   0  0  0  0  0  0  0  0  0  0  0  0
    0.4611    8.4123    0.0033 H   0  0  0  0  0  0  0  0  0  0  0  0
    0.9436    8.2673   -2.4290 H   0  0  0  0  0  0  0  0  0  0  0  0
    1.9422    7.0228   -4.3315 H   0  0  0  0  0  0  0  0  0  0  0  0
    3.0777    4.8495   -3.8582 H   0  0  0  0  0  0  0  0  0  0  0  0
    5.4069   -2.9542    0.1758 H   0  0  0  0  0  0  0  0  0  0  0  0
    1.2317   -5.0148   -0.6221 H   0  0  0  0  0  0  0  0  0  0  0  0
    1.2261   -7.4298   -1.0107 H   0  0  0  0  0  0  0  0  0  0  0  0
    3.3494   -8.7111   -0.9870 H   0  0  0  0  0  0  0  0  0  0  0  0
    5.4824   -7.5604   -0.5446 H   0  0  0  0  0  0  0  0  0  0  0  0
    6.4759   -5.6439   -0.1239 H   0  0  0  0  0  0  0  0  0  0  0  0
    1.2652   -2.6930   -0.4288 H   0  0  0  0  0  0  0  0  0  0  0  0
  1  2  2  0  0  0  0
  2  3  1  0  0  0  0
  2 18  1  0  0  0  0
  3  4  1  0  0  0  0
  3 30  1  0  0  0  0
  4  5  1  0  0  0  0
  4 31  1  0  0  0  0
  4 32  1  0  0  0  0
  5  6  1  0  0  0  0
  5  7  1  0  0  0  0
  5  8  1  0  0  0  0
  8  9  2  0  0  0  0
  8 17  1  0  0  0  0
  9 10  1  0  0  0  0
  9 33  1  0  0  0  0
 10 11  2  0  0  0  0
 10 34  1  0  0  0  0
 11 12  1  0  0  0  0
 11 35  1  0  0  0  0
 12 13  2  0  0  0  0
 12 17  1  0  0  0  0
 13 14  1  0  0  0  0
 13 36  1  0  0  0  0
 14 15  2  0  0  0  0
 14 37  1  0  0  0  0
 15 16  1  0  0  0  0
 15 38  1  0  0  0  0
 16 17  2  0  0  0  0
 18 19  2  0  0  0  0
 18 29  1  0  0  0  0
 19 20  1  0  0  0  0
 20 21  1  0  0  0  0
 20 39  1  0  0  0  0
 21 22  1  0  0  0  0
 21 29  2  0  0  0  0
 22 23  2  0  0  0  0
 22 27  1  0  0  0  0
 23 24  1  0  0  0  0
 23 40  1  0  0  0  0
 24 25  2  0  0  0  0
 24 41  1  0  0  0  0
 25 26  1  0  0  0  0
 25 42  1  0  0  0  0
 26 27  2  0  0  0  0
 26 43  1  0  0  0  0
 27 28  1  0  0  0  0
 28 44  1  0  0  0  0
 29 45  1  0  0  0  0
M  END
$$$$
