
 OpenBabel01122422373D

 47 50  0  0  0  0  0  0  0  0999 V2000
    1.1493   -0.6261    0.3973 C   0  0  0  0  0  0  0  0  0  0  0  0
    2.4004   -0.0527    0.0078 O   0  0  0  0  0  0  0  0  0  0  0  0
    3.1193    0.5491    1.0163 C   0  0  0  0  0  0  0  0  0  0  0  0
    2.7632    0.4673    2.3731 C   0  0  0  0  0  0  0  0  0  0  0  0
    3.5591    1.0468    3.3641 C   0  0  0  0  0  0  0  0  0  0  0  0
    4.7348    1.7243    3.0379 C   0  0  0  0  0  0  0  0  0  0  0  0
    5.6361    2.2539    4.0785 C   0  0  0  0  0  0  0  0  0  0  0  0
    7.0224    2.3366    3.9029 C   0  0  0  0  0  0  0  0  0  0  0  0
    7.8216    2.7943    4.9435 C   0  0  0  0  0  0  0  0  0  0  0  0
    7.2212    3.1626    6.1418 C   0  0  0  0  0  0  0  0  0  0  0  0
    5.8437    3.0561    6.2407 C   0  0  0  0  0  0  0  0  0  0  0  0
    5.0465    2.6095    5.2493 N   0  0  0  0  0  0  0  0  0  0  0  0
    5.0375    1.8529    1.6743 C   0  0  0  0  0  0  0  0  0  0  0  0
    4.2797    1.2593    0.6520 C   0  0  0  0  0  0  0  0  0  0  0  0
    4.6669    1.3630   -0.7228 N   0  0  0  0  0  0  0  0  0  0  0  0
    5.8637    1.9049   -1.1818 C   0  0  0  0  0  0  0  0  0  0  0  0
    6.7305    2.3700   -0.4427 O   0  0  0  0  0  0  0  0  0  0  0  0
    6.0937    1.9136   -2.6080 C   0  0  0  0  0  0  0  0  0  0  0  0
    5.2197    2.1963   -3.6378 C   0  0  0  0  0  0  0  0  0  0  0  0
    5.8854    2.4154   -4.8133 N   0  0  0  0  0  0  0  0  0  0  0  0
    7.1574    2.2734   -4.5168 C   0  0  0  0  0  0  0  0  0  0  0  0
    7.3562    1.8915   -3.2073 N   0  0  0  0  0  0  0  0  0  0  0  0
    8.6148    1.5367   -2.6337 C   0  0  0  0  0  0  0  0  0  0  0  0
    9.8011    2.1305   -3.0931 C   0  0  0  0  0  0  0  0  0  0  0  0
   11.0277    1.8012   -2.5006 C   0  0  0  0  0  0  0  0  0  0  0  0
   11.0678    0.8667   -1.4704 C   0  0  0  0  0  0  0  0  0  0  0  0
   12.2382    0.5155   -0.8666 O   0  0  0  0  0  0  0  0  0  0  0  0
    9.9054    0.2558   -1.0227 C   0  0  0  0  0  0  0  0  0  0  0  0
    8.6799    0.5838   -1.6062 C   0  0  0  0  0  0  0  0  0  0  0  0
    0.6787   -1.0652   -0.4865 H   0  0  0  0  0  0  0  0  0  0  0  0
    0.4759    0.1459    0.7875 H   0  0  0  0  0  0  0  0  0  0  0  0
    1.2815   -1.4344    1.1271 H   0  0  0  0  0  0  0  0  0  0  0  0
    1.8780   -0.0596    2.7139 H   0  0  0  0  0  0  0  0  0  0  0  0
    3.2631    0.9516    4.4079 H   0  0  0  0  0  0  0  0  0  0  0  0
    7.4937    2.0243    2.9747 H   0  0  0  0  0  0  0  0  0  0  0  0
    8.8981    2.8528    4.8260 H   0  0  0  0  0  0  0  0  0  0  0  0
    7.8112    3.5191    6.9786 H   0  0  0  0  0  0  0  0  0  0  0  0
    5.3266    3.3339    7.1546 H   0  0  0  0  0  0  0  0  0  0  0  0
    5.8985    2.4645    1.4391 H   0  0  0  0  0  0  0  0  0  0  0  0
    4.0294    0.9305   -1.3820 H   0  0  0  0  0  0  0  0  0  0  0  0
    4.1493    2.3487   -3.5788 H   0  0  0  0  0  0  0  0  0  0  0  0
    7.9710    2.3802   -5.2220 H   0  0  0  0  0  0  0  0  0  0  0  0
    9.7967    2.8946   -3.8666 H   0  0  0  0  0  0  0  0  0  0  0  0
   11.9334    2.2932   -2.8427 H   0  0  0  0  0  0  0  0  0  0  0  0
   12.9661    1.0003   -1.2883 H   0  0  0  0  0  0  0  0  0  0  0  0
    9.9470   -0.4722   -0.2173 H   0  0  0  0  0  0  0  0  0  0  0  0
    7.7945    0.0694   -1.2439 H   0  0  0  0  0  0  0  0  0  0  0  0
  1  2  1  0  0  0  0
  1 30  1  0  0  0  0
  1 31  1  0  0  0  0
  1 32  1  0  0  0  0
  2  3  1  0  0  0  0
  3  4  2  0  0  0  0
  3 14  1  0  0  0  0
  4  5  1  0  0  0  0
  4 33  1  0  0  0  0
  5  6  2  0  0  0  0
  5 34  1  0  0  0  0
  6  7  1  0  0  0  0
  6 13  1  0  0  0  0
  7  8  2  0  0  0  0
  7 12  1  0  0  0  0
  8  9  1  0  0  0  0
  8 35  1  0  0  0  0
  9 10  2  0  0  0  0
  9 36  1  0  0  0  0
 10 11  1  0  0  0  0
 10 37  1  0  0  0  0
 11 12  2  0  0  0  0
 11 38  1  0  0  0  0
 13 14  2  0  0  0  0
 13 39  1  0  0  0  0
 14 15  1  0  0  0  0
 15 16  1  0  0  0  0
 15 40  1  0  0  0  0
 16 17  2  0  0  0  0
 16 18  1  0  0  0  0
 18 19  2  0  0  0  0
 18 22  1  0  0  0  0
 19 20  1  0  0  0  0
 19 41  1  0  0  0  0
 20 21  2  0  0  0  0
 21 22  1  0  0  0  0
 21 42  1  0  0  0  0
 22 23  1  0  0  0  0
 23 24  2  0  0  0  0
 23 29  1  0  0  0  0
 24 25  1  0  0  0  0
 24 43  1  0  0  0  0
 25 26  2  0  0  0  0
 25 44  1  0  0  0  0
 26 27  1  0  0  0  0
 26 28  1  0  0  0  0
 27 45  1  0  0  0  0
 28 29  2  0  0  0  0
 28 46  1  0  0  0  0
 29 47  1  0  0  0  0
M  END
$$$$
