
 OpenBabel01122422373D

 41 44  0  0  0  0  0  0  0  0999 V2000
    0.9676    0.2263    0.3196 O   0  0  0  0  0  0  0  0  0  0  0  0
    2.1780    0.0691    0.1773 C   0  0  0  0  0  0  0  0  0  0  0  0
    2.9456   -0.5906    1.1056 N   0  0  0  0  0  0  0  0  0  0  0  0
    2.2896   -1.2070    2.2307 C   0  0  0  0  0  0  0  0  0  0  0  0
    3.2758   -1.8301    3.1450 C   0  0  0  0  0  0  0  0  0  0  0  0
    4.0593   -2.8349    2.7334 N   0  0  0  0  0  0  0  0  0  0  0  0
    4.7932   -3.2123    3.8436 O   0  0  0  0  0  0  0  0  0  0  0  0
    4.4524   -2.4357    4.9130 C   0  0  0  0  0  0  0  0  0  0  0  0
    5.1043   -2.7400    6.1812 C   0  0  0  0  0  0  0  0  0  0  0  0
    6.0583   -3.7665    6.2846 C   0  0  0  0  0  0  0  0  0  0  0  0
    6.6484   -4.0732    7.5137 C   0  0  0  0  0  0  0  0  0  0  0  0
    6.2887   -3.3540    8.6452 C   0  0  0  0  0  0  0  0  0  0  0  0
    6.8439   -3.6562    9.8254 F   0  0  0  0  0  0  0  0  0  0  0  0
    5.3571   -2.3277    8.5702 C   0  0  0  0  0  0  0  0  0  0  0  0
    4.7675   -2.0204    7.3411 C   0  0  0  0  0  0  0  0  0  0  0  0
    3.5044   -1.5267    4.5060 C   0  0  0  0  0  0  0  0  0  0  0  0
    2.8883    0.5700   -0.9841 C   0  0  0  0  0  0  0  0  0  0  0  0
    2.3215    1.2853   -2.0125 C   0  0  0  0  0  0  0  0  0  0  0  0
    3.3391    1.5477   -2.8952 N   0  0  0  0  0  0  0  0  0  0  0  0
    3.2775    2.2380   -4.1279 C   0  0  0  0  0  0  0  0  0  0  0  0
    2.0962    2.8557   -4.5534 C   0  0  0  0  0  0  0  0  0  0  0  0
    0.9890    2.8727   -3.7990 F   0  0  0  0  0  0  0  0  0  0  0  0
    2.0158    3.5083   -5.7847 C   0  0  0  0  0  0  0  0  0  0  0  0
    3.1259    3.5581   -6.6199 C   0  0  0  0  0  0  0  0  0  0  0  0
    4.3149    2.9620   -6.2078 C   0  0  0  0  0  0  0  0  0  0  0  0
    4.3894    2.3096   -4.9698 C   0  0  0  0  0  0  0  0  0  0  0  0
    5.5643    1.7533   -4.6476 F   0  0  0  0  0  0  0  0  0  0  0  0
    4.4843    1.0046   -2.4036 N   0  0  0  0  0  0  0  0  0  0  0  0
    4.2202    0.4138   -1.2415 N   0  0  0  0  0  0  0  0  0  0  0  0
    3.9024   -0.8394    0.8727 H   0  0  0  0  0  0  0  0  0  0  0  0
    1.5793   -1.9550    1.8600 H   0  0  0  0  0  0  0  0  0  0  0  0
    1.7129   -0.4340    2.7531 H   0  0  0  0  0  0  0  0  0  0  0  0
    6.3483   -4.3456    5.4095 H   0  0  0  0  0  0  0  0  0  0  0  0
    7.3799   -4.8710    7.5924 H   0  0  0  0  0  0  0  0  0  0  0  0
    5.0906   -1.7768    9.4665 H   0  0  0  0  0  0  0  0  0  0  0  0
    4.0360   -1.2166    7.3069 H   0  0  0  0  0  0  0  0  0  0  0  0
    3.0173   -0.7727    5.1053 H   0  0  0  0  0  0  0  0  0  0  0  0
    1.2979    1.5879   -2.1580 H   0  0  0  0  0  0  0  0  0  0  0  0
    1.0788    3.9720   -6.0795 H   0  0  0  0  0  0  0  0  0  0  0  0
    3.0650    4.0575   -7.5835 H   0  0  0  0  0  0  0  0  0  0  0  0
    5.1954    2.9911   -6.8450 H   0  0  0  0  0  0  0  0  0  0  0  0
  1  2  2  0  0  0  0
  2  3  1  0  0  0  0
  2 17  1  0  0  0  0
  3  4  1  0  0  0  0
  3 30  1  0  0  0  0
  4  5  1  0  0  0  0
  4 31  1  0  0  0  0
  4 32  1  0  0  0  0
  5  6  2  0  0  0  0
  5 16  1  0  0  0  0
  6  7  1  0  0  0  0
  7  8  1  0  0  0  0
  8  9  1  0  0  0  0
  8 16  2  0  0  0  0
  9 10  2  0  0  0  0
  9 15  1  0  0  0  0
 10 11  1  0  0  0  0
 10 33  1  0  0  0  0
 11 12  2  0  0  0  0
 11 34  1  0  0  0  0
 12 13  1  0  0  0  0
 12 14  1  0  0  0  0
 14 15  2  0  0  0  0
 14 35  1  0  0  0  0
 15 36  1  0  0  0  0
 16 37  1  0  0  0  0
 17 18  2  0  0  0  0
 17 29  1  0  0  0  0
 18 19  1  0  0  0  0
 18 38  1  0  0  0  0
 19 20  1  0  0  0  0
 19 28  1  0  0  0  0
 20 21  2  0  0  0  0
 20 26  1  0  0  0  0
 21 22  1  0  0  0  0
 21 23  1  0  0  0  0
 23 24  2  0  0  0  0
 23 39  1  0  0  0  0
 24 25  1  0  0  0  0
 24 40  1  0  0  0  0
 25 26  2  0  0  0  0
 25 41  1  0  0  0  0
 26 27  1  0  0  0  0
 28 29  2  0  0  0  0
M  END
$$$$
