
 OpenBabel01122422373D

 45 48  0  0  0  0  0  0  0  0999 V2000
    1.2204    0.1857   -0.6077 O   0  0  0  0  0  0  0  0  0  0  0  0
    2.2309   -0.0370    0.0571 C   0  0  0  0  0  0  0  0  0  0  0  0
    2.7449    0.8252    0.9904 N   0  0  0  0  0  0  0  0  0  0  0  0
    2.1357    2.1151    1.2320 C   0  0  0  0  0  0  0  0  0  0  0  0
    1.6598    2.3214    2.6542 C   0  0  0  0  0  0  0  0  0  0  0  0
    0.3403    1.9596    2.9916 C   0  0  0  0  0  0  0  0  0  0  0  0
   -0.1861    2.1614    4.2810 C   0  0  0  0  0  0  0  0  0  0  0  0
    0.6300    2.7604    5.2540 C   0  0  0  0  0  0  0  0  0  0  0  0
    0.4855    3.1483    6.6143 C   0  0  0  0  0  0  0  0  0  0  0  0
    1.6880    3.7022    6.9902 C   0  0  0  0  0  0  0  0  0  0  0  0
    2.5722    3.6694    5.9597 O   0  0  0  0  0  0  0  0  0  0  0  0
    1.9275    3.1005    4.9030 C   0  0  0  0  0  0  0  0  0  0  0  0
    2.4871    2.8892    3.6403 C   0  0  0  0  0  0  0  0  0  0  0  0
    3.0241   -1.2902   -0.1140 C   0  0  0  0  0  0  0  0  0  0  0  0
    2.6005   -2.1615   -1.0386 C   0  0  0  0  0  0  0  0  0  0  0  0
    3.3536   -3.4136   -1.2501 C   0  0  0  0  0  0  0  0  0  0  0  0
    3.0129   -4.1722   -2.1379 O   0  0  0  0  0  0  0  0  0  0  0  0
    4.5157   -3.6666   -0.3312 C   0  0  0  0  0  0  0  0  0  0  0  0
    5.2767   -4.8242   -0.3255 O   0  0  0  0  0  0  0  0  0  0  0  0
    5.4205   -5.5152   -1.5686 C   0  0  0  0  0  0  0  0  0  0  0  0
    6.7604   -6.2214   -1.5779 C   0  0  0  0  0  0  0  0  0  0  0  0
    6.8845   -7.5400   -1.1082 C   0  0  0  0  0  0  0  0  0  0  0  0
    8.1274   -8.1774   -1.1065 C   0  0  0  0  0  0  0  0  0  0  0  0
    9.2471   -7.4977   -1.5700 C   0  0  0  0  0  0  0  0  0  0  0  0
   10.4388   -8.1104   -1.5709 F   0  0  0  0  0  0  0  0  0  0  0  0
    9.1504   -6.1905   -2.0306 C   0  0  0  0  0  0  0  0  0  0  0  0
    7.9093   -5.5512   -2.0326 C   0  0  0  0  0  0  0  0  0  0  0  0
    4.8028   -2.6984    0.5470 C   0  0  0  0  0  0  0  0  0  0  0  0
    4.1449   -1.4951    0.6704 O   0  0  0  0  0  0  0  0  0  0  0  0
    3.6627    0.6241    1.3644 H   0  0  0  0  0  0  0  0  0  0  0  0
    1.2873    2.2361    0.5502 H   0  0  0  0  0  0  0  0  0  0  0  0
    2.8706    2.8845    0.9670 H   0  0  0  0  0  0  0  0  0  0  0  0
   -0.3009    1.5102    2.2353 H   0  0  0  0  0  0  0  0  0  0  0  0
   -1.2050    1.8651    4.5089 H   0  0  0  0  0  0  0  0  0  0  0  0
   -0.3884    3.0452    7.2413 H   0  0  0  0  0  0  0  0  0  0  0  0
    2.0602    4.1419    7.9051 H   0  0  0  0  0  0  0  0  0  0  0  0
    3.5178    3.1776    3.4668 H   0  0  0  0  0  0  0  0  0  0  0  0
    1.7291   -1.9949   -1.6600 H   0  0  0  0  0  0  0  0  0  0  0  0
    5.3994   -4.8211   -2.4180 H   0  0  0  0  0  0  0  0  0  0  0  0
    4.6185   -6.2542   -1.6705 H   0  0  0  0  0  0  0  0  0  0  0  0
    6.0126   -8.0753   -0.7376 H   0  0  0  0  0  0  0  0  0  0  0  0
    8.2291   -9.1963   -0.7452 H   0  0  0  0  0  0  0  0  0  0  0  0
   10.0393   -5.6768   -2.3811 H   0  0  0  0  0  0  0  0  0  0  0  0
    7.8416   -4.5251   -2.3874 H   0  0  0  0  0  0  0  0  0  0  0  0
    5.6086   -2.7737    1.2652 H   0  0  0  0  0  0  0  0  0  0  0  0
  1  2  2  0  0  0  0
  2  3  1  0  0  0  0
  2 14  1  0  0  0  0
  3  4  1  0  0  0  0
  3 30  1  0  0  0  0
  4  5  1  0  0  0  0
  4 31  1  0  0  0  0
  4 32  1  0  0  0  0
  5  6  2  0  0  0  0
  5 13  1  0  0  0  0
  6  7  1  0  0  0  0
  6 33  1  0  0  0  0
  7  8  2  0  0  0  0
  7 34  1  0  0  0  0
  8  9  1  0  0  0  0
  8 12  1  0  0  0  0
  9 10  2  0  0  0  0
  9 35  1  0  0  0  0
 10 11  1  0  0  0  0
 10 36  1  0  0  0  0
 11 12  1  0  0  0  0
 12 13  2  0  0  0  0
 13 37  1  0  0  0  0
 14 15  2  0  0  0  0
 14 29  1  0  0  0  0
 15 16  1  0  0  0  0
 15 38  1  0  0  0  0
 16 17  2  0  0  0  0
 16 18  1  0  0  0  0
 18 19  1  0  0  0  0
 18 28  2  0  0  0  0
 19 20  1  0  0  0  0
 20 21  1  0  0  0  0
 20 39  1  0  0  0  0
 20 40  1  0  0  0  0
 21 22  2  0  0  0  0
 21 27  1  0  0  0  0
 22 23  1  0  0  0  0
 22 41  1  0  0  0  0
 23 24  2  0  0  0  0
 23 42  1  0  0  0  0
 24 25  1  0  0  0  0
 24 26  1  0  0  0  0
 26 27  2  0  0  0  0
 26 43  1  0  0  0  0
 27 44  1  0  0  0  0
 28 29  1  0  0  0  0
 28 45  1  0  0  0  0
M  END
$$$$
