
 OpenBabel01122422373D

 43 46  0  0  0  0  0  0  0  0999 V2000
    0.5577    0.8099    2.9203 O   0  0  0  0  0  0  0  0  0  0  0  0
    0.1950    0.3113    1.8591 C   0  0  0  0  0  0  0  0  0  0  0  0
   -0.6205   -0.7890    1.7970 N   0  0  0  0  0  0  0  0  0  0  0  0
   -0.9454   -1.2697    0.6335 C   0  0  0  0  0  0  0  0  0  0  0  0
   -1.8138   -2.4865    0.5432 C   0  0  0  0  0  0  0  0  0  0  0  0
   -2.2628   -3.0984    1.7009 C   0  0  0  0  0  0  0  0  0  0  0  0
   -2.9725   -4.2952    1.5860 C   0  0  0  0  0  0  0  0  0  0  0  0
   -3.2558   -4.8684    0.3305 C   0  0  0  0  0  0  0  0  0  0  0  0
   -3.9696   -6.1740    0.2132 C   0  0  0  0  0  0  0  0  0  0  0  0
   -4.9010   -6.5267    1.2204 C   0  0  0  0  0  0  0  0  0  0  0  0
   -5.5373   -7.7632    1.2388 C   0  0  0  0  0  0  0  0  0  0  0  0
   -6.3970   -8.0481    2.2239 F   0  0  0  0  0  0  0  0  0  0  0  0
   -5.2758   -8.7057    0.2661 C   0  0  0  0  0  0  0  0  0  0  0  0
   -4.3882   -8.3916   -0.7559 C   0  0  0  0  0  0  0  0  0  0  0  0
   -3.7605   -7.1269   -0.8233 C   0  0  0  0  0  0  0  0  0  0  0  0
   -2.9245   -6.7978   -1.8762 O   0  0  0  0  0  0  0  0  0  0  0  0
   -3.0907   -7.5940   -3.0607 C   0  0  0  0  0  0  0  0  0  0  0  0
   -2.5432   -6.9765   -4.3252 C   0  0  0  0  0  0  0  0  0  0  0  0
   -1.7359   -5.8399   -4.3470 C   0  0  0  0  0  0  0  0  0  0  0  0
   -1.3048   -5.3590   -5.5744 C   0  0  0  0  0  0  0  0  0  0  0  0
   -1.6030   -5.9303   -6.7631 N   0  0  0  0  0  0  0  0  0  0  0  0
   -2.3659   -7.0380   -6.7245 C   0  0  0  0  0  0  0  0  0  0  0  0
   -2.8510   -7.5915   -5.5487 C   0  0  0  0  0  0  0  0  0  0  0  0
   -2.8086   -4.1231   -0.7598 C   0  0  0  0  0  0  0  0  0  0  0  0
   -2.0904   -2.9676   -0.6929 N   0  0  0  0  0  0  0  0  0  0  0  0
   -0.4889   -0.6935   -0.6565 C   0  0  0  0  0  0  0  0  0  0  0  0
    0.2903    0.3820   -0.5508 C   0  0  0  0  0  0  0  0  0  0  0  0
    0.6182    0.8701    0.6772 N   0  0  0  0  0  0  0  0  0  0  0  0
   -2.0486   -2.6791    2.6797 H   0  0  0  0  0  0  0  0  0  0  0  0
   -3.2774   -4.7799    2.5111 H   0  0  0  0  0  0  0  0  0  0  0  0
   -5.1539   -5.8388    2.0239 H   0  0  0  0  0  0  0  0  0  0  0  0
   -5.7667   -9.6719    0.3029 H   0  0  0  0  0  0  0  0  0  0  0  0
   -4.1991   -9.1679   -1.4901 H   0  0  0  0  0  0  0  0  0  0  0  0
   -4.1616   -7.7526   -3.2463 H   0  0  0  0  0  0  0  0  0  0  0  0
   -2.5805   -8.5538   -2.9128 H   0  0  0  0  0  0  0  0  0  0  0  0
   -1.4441   -5.3295   -3.4360 H   0  0  0  0  0  0  0  0  0  0  0  0
   -0.6858   -4.4675   -5.6399 H   0  0  0  0  0  0  0  0  0  0  0  0
   -2.5907   -7.4877   -7.6878 H   0  0  0  0  0  0  0  0  0  0  0  0
   -3.4622   -8.4880   -5.5919 H   0  0  0  0  0  0  0  0  0  0  0  0
   -3.0225   -4.4318   -1.7783 H   0  0  0  0  0  0  0  0  0  0  0  0
   -0.7719   -1.1316   -1.6036 H   0  0  0  0  0  0  0  0  0  0  0  0
    0.6921    0.9008   -1.4143 H   0  0  0  0  0  0  0  0  0  0  0  0
    1.2149    1.6803    0.7788 H   0  0  0  0  0  0  0  0  0  0  0  0
  1  2  2  0  0  0  0
  2  3  1  0  0  0  0
  2 28  1  0  0  0  0
  3  4  2  0  0  0  0
  4  5  1  0  0  0  0
  4 26  1  0  0  0  0
  5  6  2  0  0  0  0
  5 25  1  0  0  0  0
  6  7  1  0  0  0  0
  6 29  1  0  0  0  0
  7  8  2  0  0  0  0
  7 30  1  0  0  0  0
  8  9  1  0  0  0  0
  8 24  1  0  0  0  0
  9 10  2  0  0  0  0
  9 15  1  0  0  0  0
 10 11  1  0  0  0  0
 10 31  1  0  0  0  0
 11 12  1  0  0  0  0
 11 13  2  0  0  0  0
 13 14  1  0  0  0  0
 13 32  1  0  0  0  0
 14 15  2  0  0  0  0
 14 33  1  0  0  0  0
 15 16  1  0  0  0  0
 16 17  1  0  0  0  0
 17 18  1  0  0  0  0
 17 34  1  0  0  0  0
 17 35  1  0  0  0  0
 18 19  2  0  0  0  0
 18 23  1  0  0  0  0
 19 20  1  0  0  0  0
 19 36  1  0  0  0  0
 20 21  2  0  0  0  0
 20 37  1  0  0  0  0
 21 22  1  0  0  0  0
 22 23  2  0  0  0  0
 22 38  1  0  0  0  0
 23 39  1  0  0  0  0
 24 25  2  0  0  0  0
 24 40  1  0  0  0  0
 26 27  2  0  0  0  0
 26 41  1  0  0  0  0
 27 28  1  0  0  0  0
 27 42  1  0  0  0  0
 28 43  1  0  0  0  0
M  END
$$$$
