
 OpenBabel01122422373D

 47 49  0  0  1  0  0  0  0  0999 V2000
    3.0035   -0.6474    0.7768 O   0  0  0  0  0  0  0  0  0  0  0  0
    3.2426    0.1882   -0.0961 C   0  0  0  0  0  0  0  0  0  0  0  0
    2.9281    1.5309    0.0314 N   0  0  0  0  0  0  0  0  0  0  0  0
    2.2748    2.1016    1.1968 C   0  0  0  0  0  0  0  0  0  0  0  0
    3.1922    2.8163    2.1627 C   0  0  0  0  0  0  0  0  0  0  0  0
    3.7812    2.0710    3.2058 C   0  0  0  0  0  0  0  0  0  0  0  0
    4.5269    2.6927    4.2101 C   0  0  0  0  0  0  0  0  0  0  0  0
    4.7001    4.0697    4.2074 C   0  0  0  0  0  0  0  0  0  0  0  0
    4.1597    4.8217    3.1697 C   0  0  0  0  0  0  0  0  0  0  0  0
    3.4762    4.1925    2.1083 C   0  0  0  0  0  0  0  0  0  0  0  0
    3.0732    4.9591    1.0289 O   0  0  0  0  0  0  0  0  0  0  0  0
    4.0853    5.7322    0.4475 C   0  0  0  0  0  0  0  0  0  0  0  0
    3.7233    6.9252   -0.1605 C   0  0  0  0  0  0  0  0  0  0  0  0
    4.7274    7.6953   -0.7502 C   0  0  0  0  0  0  0  0  0  0  0  0
    6.0487    7.2596   -0.6973 C   0  0  0  0  0  0  0  0  0  0  0  0
    6.3159    6.0643   -0.0541 C   0  0  0  0  0  0  0  0  0  0  0  0
    5.3626    5.2833    0.4937 N   0  0  0  0  0  0  0  0  0  0  0  0
    4.0212   -0.1852   -1.3818 C   0  0  3  0  0  0  0  0  0  0  0  0
    5.1526   -0.9917   -1.0450 O   0  0  0  0  0  0  0  0  0  0  0  0
    3.2866   -0.9286   -2.4910 C   0  0  0  0  0  0  0  0  0  0  0  0
    3.7825   -0.7829   -3.7997 C   0  0  0  0  0  0  0  0  0  0  0  0
    3.3084   -1.5711   -4.8479 C   0  0  0  0  0  0  0  0  0  0  0  0
    2.3092   -2.5150   -4.6203 C   0  0  0  0  0  0  0  0  0  0  0  0
    1.7374   -2.6330   -3.3536 C   0  0  0  0  0  0  0  0  0  0  0  0
    0.7081   -3.4626   -3.0167 O   0  0  0  0  0  0  0  0  0  0  0  0
   -0.0595   -4.1218   -4.0186 C   0  0  0  0  0  0  0  0  0  0  0  0
   -0.0811   -3.4805   -5.2068 F   0  0  0  0  0  0  0  0  0  0  0  0
    0.4019   -5.3778   -4.2045 F   0  0  0  0  0  0  0  0  0  0  0  0
   -1.3393   -4.2065   -3.5883 F   0  0  0  0  0  0  0  0  0  0  0  0
    2.2533   -1.8599   -2.2885 C   0  0  0  0  0  0  0  0  0  0  0  0
    3.1894    2.1760   -0.7019 H   0  0  0  0  0  0  0  0  0  0  0  0
    1.7388    1.3071    1.7323 H   0  0  0  0  0  0  0  0  0  0  0  0
    1.5051    2.7903    0.8311 H   0  0  0  0  0  0  0  0  0  0  0  0
    3.6174    0.9948    3.2574 H   0  0  0  0  0  0  0  0  0  0  0  0
    4.9743    2.0958    5.0011 H   0  0  0  0  0  0  0  0  0  0  0  0
    5.2655    4.5585    4.9955 H   0  0  0  0  0  0  0  0  0  0  0  0
    4.3144    5.8990    3.1611 H   0  0  0  0  0  0  0  0  0  0  0  0
    2.6931    7.2604   -0.1647 H   0  0  0  0  0  0  0  0  0  0  0  0
    4.4851    8.6328   -1.2425 H   0  0  0  0  0  0  0  0  0  0  0  0
    6.8521    7.8354   -1.1435 H   0  0  0  0  0  0  0  0  0  0  0  0
    7.3310    5.6909    0.0452 H   0  0  0  0  0  0  0  0  0  0  0  0
    4.4204    0.7468   -1.7991 H   0  0  0  0  0  0  0  0  0  0  0  0
    4.8103   -1.6805   -0.4446 H   0  0  0  0  0  0  0  0  0  0  0  0
    4.5928   -0.0840   -4.0001 H   0  0  0  0  0  0  0  0  0  0  0  0
    3.7412   -1.4669   -5.8403 H   0  0  0  0  0  0  0  0  0  0  0  0
    2.0202   -3.1425   -5.4583 H   0  0  0  0  0  0  0  0  0  0  0  0
    1.8478   -2.0212   -1.2902 H   0  0  0  0  0  0  0  0  0  0  0  0
  1  2  2  0  0  0  0
  2  3  1  0  0  0  0
  2 18  1  0  0  0  0
  3  4  1  0  0  0  0
  3 31  1  0  0  0  0
  4  5  1  0  0  0  0
  4 32  1  0  0  0  0
  4 33  1  0  0  0  0
  5  6  2  0  0  0  0
  5 10  1  0  0  0  0
  6  7  1  0  0  0  0
  6 34  1  0  0  0  0
  7  8  2  0  0  0  0
  7 35  1  0  0  0  0
  8  9  1  0  0  0  0
  8 36  1  0  0  0  0
  9 10  2  0  0  0  0
  9 37  1  0  0  0  0
 10 11  1  0  0  0  0
 11 12  1  0  0  0  0
 12 13  2  0  0  0  0
 12 17  1  0  0  0  0
 13 14  1  0  0  0  0
 13 38  1  0  0  0  0
 14 15  2  0  0  0  0
 14 39  1  0  0  0  0
 15 16  1  0  0  0  0
 15 40  1  0  0  0  0
 16 17  2  0  0  0  0
 16 41  1  0  0  0  0
 18 19  1  0  0  0  0
 18 20  1  0  0  0  0
 18 42  1  0  0  0  0
 19 43  1  0  0  0  0
 20 21  2  0  0  0  0
 20 30  1  0  0  0  0
 21 22  1  0  0  0  0
 21 44  1  0  0  0  0
 22 23  2  0  0  0  0
 22 45  1  0  0  0  0
 23 24  1  0  0  0  0
 23 46  1  0  0  0  0
 24 25  1  0  0  0  0
 24 30  2  0  0  0  0
 25 26  1  0  0  0  0
 26 27  1  0  0  0  0
 26 28  1  0  0  0  0
 26 29  1  0  0  0  0
 30 47  1  0  0  0  0
M  END
$$$$
