
 OpenBabel01122422373D

 41 44  0  0  0  0  0  0  0  0999 V2000
    1.0480    0.2504   -0.0141 O   0  0  0  0  0  0  0  0  0  0  0  0
    2.2728    0.0684    0.0035 C   0  0  0  0  0  0  0  0  0  0  0  0
    2.8587   -1.2978   -0.2923 C   0  0  0  0  0  0  0  0  0  0  0  0
    2.5542   -1.7132   -1.6740 C   0  0  0  0  0  0  0  0  0  0  0  0
    1.3431   -2.0275   -2.2399 C   0  0  0  0  0  0  0  0  0  0  0  0
    1.5556   -2.3574   -3.5383 O   0  0  0  0  0  0  0  0  0  0  0  0
    2.9170   -2.2257   -3.7015 C   0  0  0  0  0  0  0  0  0  0  0  0
    3.4420   -2.5118   -5.0339 C   0  0  0  0  0  0  0  0  0  0  0  0
    2.5875   -2.8542   -6.0934 C   0  0  0  0  0  0  0  0  0  0  0  0
    3.1010   -3.1222   -7.3624 C   0  0  0  0  0  0  0  0  0  0  0  0
    4.4724   -3.0473   -7.5761 C   0  0  0  0  0  0  0  0  0  0  0  0
    4.9644   -3.3067   -8.7934 F   0  0  0  0  0  0  0  0  0  0  0  0
    5.3378   -2.7063   -6.5428 C   0  0  0  0  0  0  0  0  0  0  0  0
    4.8237   -2.4351   -5.2719 C   0  0  0  0  0  0  0  0  0  0  0  0
    3.5513   -1.8575   -2.6129 N   0  0  0  0  0  0  0  0  0  0  0  0
    3.0514    1.1155    0.3871 N   0  0  0  0  0  0  0  0  0  0  0  0
    4.4213    1.1327    0.4801 C   0  0  0  0  0  0  0  0  0  0  0  0
    5.2757    0.3712   -0.1644 N   0  0  0  0  0  0  0  0  0  0  0  0
    6.4833    0.9183    0.1237 C   0  0  0  0  0  0  0  0  0  0  0  0
    6.4517    1.9907    0.9150 N   0  0  0  0  0  0  0  0  0  0  0  0
    5.1358    2.0490    1.2515 N   0  0  0  0  0  0  0  0  0  0  0  0
    4.6930    2.8850    2.3041 C   0  0  0  0  0  0  0  0  0  0  0  0
    5.4346    4.0248    2.6439 C   0  0  0  0  0  0  0  0  0  0  0  0
    4.9913    4.8504    3.6805 C   0  0  0  0  0  0  0  0  0  0  0  0
    3.8338    4.5241    4.3825 C   0  0  0  0  0  0  0  0  0  0  0  0
    3.4181    5.3154    5.3779 F   0  0  0  0  0  0  0  0  0  0  0  0
    3.1113    3.3831    4.0784 C   0  0  0  0  0  0  0  0  0  0  0  0
    3.5505    2.5658    3.0473 C   0  0  0  0  0  0  0  0  0  0  0  0
    2.8751    1.4276    2.8468 F   0  0  0  0  0  0  0  0  0  0  0  0
    2.4122   -1.9976    0.4248 H   0  0  0  0  0  0  0  0  0  0  0  0
    3.9283   -1.3694   -0.1143 H   0  0  0  0  0  0  0  0  0  0  0  0
    0.3188   -2.0547   -1.8932 H   0  0  0  0  0  0  0  0  0  0  0  0
    1.5132   -2.9160   -5.9382 H   0  0  0  0  0  0  0  0  0  0  0  0
    2.4400   -3.3880   -8.1812 H   0  0  0  0  0  0  0  0  0  0  0  0
    6.4052   -2.6522   -6.7325 H   0  0  0  0  0  0  0  0  0  0  0  0
    5.5028   -2.1663   -4.4661 H   0  0  0  0  0  0  0  0  0  0  0  0
    2.5187    1.9011    0.7368 H   0  0  0  0  0  0  0  0  0  0  0  0
    7.4153    0.5224   -0.2636 H   0  0  0  0  0  0  0  0  0  0  0  0
    6.3401    4.2914    2.0996 H   0  0  0  0  0  0  0  0  0  0  0  0
    5.5429    5.7469    3.9477 H   0  0  0  0  0  0  0  0  0  0  0  0
    2.2266    3.1168    4.6463 H   0  0  0  0  0  0  0  0  0  0  0  0
  1  2  2  0  0  0  0
  2  3  1  0  0  0  0
  2 16  1  0  0  0  0
  3  4  1  0  0  0  0
  3 30  1  0  0  0  0
  3 31  1  0  0  0  0
  4  5  2  0  0  0  0
  4 15  1  0  0  0  0
  5  6  1  0  0  0  0
  5 32  1  0  0  0  0
  6  7  1  0  0  0  0
  7  8  1  0  0  0  0
  7 15  2  0  0  0  0
  8  9  2  0  0  0  0
  8 14  1  0  0  0  0
  9 10  1  0  0  0  0
  9 33  1  0  0  0  0
 10 11  2  0  0  0  0
 10 34  1  0  0  0  0
 11 12  1  0  0  0  0
 11 13  1  0  0  0  0
 13 14  2  0  0  0  0
 13 35  1  0  0  0  0
 14 36  1  0  0  0  0
 16 17  1  0  0  0  0
 16 37  1  0  0  0  0
 17 18  2  0  0  0  0
 17 21  1  0  0  0  0
 18 19  1  0  0  0  0
 19 20  2  0  0  0  0
 19 38  1  0  0  0  0
 20 21  1  0  0  0  0
 21 22  1  0  0  0  0
 22 23  2  0  0  0  0
 22 28  1  0  0  0  0
 23 24  1  0  0  0  0
 23 39  1  0  0  0  0
 24 25  2  0  0  0  0
 24 40  1  0  0  0  0
 25 26  1  0  0  0  0
 25 27  1  0  0  0  0
 27 28  2  0  0  0  0
 27 41  1  0  0  0  0
 28 29  1  0  0  0  0
M  END
$$$$
