
 OpenBabel01122422373D

 51 54  0  0  0  0  0  0  0  0999 V2000
    7.9168   -0.9939   -5.5731 C   0  0  0  0  0  0  0  0  0  0  0  0
    8.2228   -0.4468   -4.2973 O   0  0  0  0  0  0  0  0  0  0  0  0
    7.2619    0.3216   -3.6996 C   0  0  0  0  0  0  0  0  0  0  0  0
    6.0081    0.6203   -4.2156 C   0  0  0  0  0  0  0  0  0  0  0  0
    5.1108    1.3664   -3.4523 C   0  0  0  0  0  0  0  0  0  0  0  0
    5.4619    1.8149   -2.1717 C   0  0  0  0  0  0  0  0  0  0  0  0
    6.7388    1.5857   -1.6374 C   0  0  0  0  0  0  0  0  0  0  0  0
    7.1753    2.0695   -0.2901 C   0  0  0  0  0  0  0  0  0  0  0  0
    8.0725    1.2618    0.4554 C   0  0  0  0  0  0  0  0  0  0  0  0
    8.6075    1.6551    1.6863 C   0  0  0  0  0  0  0  0  0  0  0  0
    8.2395    2.8686    2.2380 C   0  0  0  0  0  0  0  0  0  0  0  0
    7.2937    3.6493    1.5847 C   0  0  0  0  0  0  0  0  0  0  0  0
    6.7461    3.2604    0.3448 C   0  0  0  0  0  0  0  0  0  0  0  0
    5.8042    4.1427   -0.2267 N   0  0  0  0  0  0  0  0  0  0  0  0
    4.7049    4.6073    0.4890 C   0  0  0  0  0  0  0  0  0  0  0  0
    4.4092    4.2843    1.6359 O   0  0  0  0  0  0  0  0  0  0  0  0
    3.8089    5.5350   -0.2652 C   0  0  0  0  0  0  0  0  0  0  0  0
    2.6144    5.9680    0.3077 C   0  0  0  0  0  0  0  0  0  0  0  0
    1.8348    6.8846   -0.3958 C   0  0  0  0  0  0  0  0  0  0  0  0
    2.2788    7.3289   -1.6406 C   0  0  0  0  0  0  0  0  0  0  0  0
    1.5178    8.3087   -2.4451 C   0  0  0  0  0  0  0  0  0  0  0  0
    0.4660    8.7431   -1.9861 O   0  0  0  0  0  0  0  0  0  0  0  0
    2.0538    8.6631   -3.6971 N   0  0  0  0  0  0  0  0  0  0  0  0
    1.2756    9.5918   -4.5090 C   0  0  0  0  0  0  0  0  0  0  0  0
    3.2636    8.1479   -4.1663 C   0  0  0  0  0  0  0  0  0  0  0  0
    3.8252    8.5454   -5.5055 C   0  0  0  0  0  0  0  0  0  0  0  0
    3.9639    7.2728   -3.4277 C   0  0  0  0  0  0  0  0  0  0  0  0
    3.4728    6.8312   -2.1344 C   0  0  0  0  0  0  0  0  0  0  0  0
    4.2486    5.9320   -1.4885 N   0  0  0  0  0  0  0  0  0  0  0  0
    7.6189    0.8244   -2.4412 C   0  0  0  0  0  0  0  0  0  0  0  0
    8.7287   -1.6751   -5.8475 H   0  0  0  0  0  0  0  0  0  0  0  0
    7.8715   -0.2018   -6.3267 H   0  0  0  0  0  0  0  0  0  0  0  0
    6.9913   -1.5791   -5.5563 H   0  0  0  0  0  0  0  0  0  0  0  0
    5.6937    0.2793   -5.1957 H   0  0  0  0  0  0  0  0  0  0  0  0
    4.1220    1.5877   -3.8476 H   0  0  0  0  0  0  0  0  0  0  0  0
    4.6985    2.3301   -1.5958 H   0  0  0  0  0  0  0  0  0  0  0  0
    8.3676    0.2815    0.0843 H   0  0  0  0  0  0  0  0  0  0  0  0
    9.3111    1.0096    2.2047 H   0  0  0  0  0  0  0  0  0  0  0  0
    8.6694    3.2044    3.1769 H   0  0  0  0  0  0  0  0  0  0  0  0
    7.0043    4.5974    2.0343 H   0  0  0  0  0  0  0  0  0  0  0  0
    5.7595    4.2398   -1.2357 H   0  0  0  0  0  0  0  0  0  0  0  0
    2.2991    5.6059    1.2830 H   0  0  0  0  0  0  0  0  0  0  0  0
    0.9008    7.2503    0.0251 H   0  0  0  0  0  0  0  0  0  0  0  0
    0.3568    9.9122   -4.0096 H   0  0  0  0  0  0  0  0  0  0  0  0
    0.9920    9.0964   -5.4437 H   0  0  0  0  0  0  0  0  0  0  0  0
    1.8747   10.4840   -4.7171 H   0  0  0  0  0  0  0  0  0  0  0  0
    3.1802    9.2041   -6.0888 H   0  0  0  0  0  0  0  0  0  0  0  0
    3.9983    7.6523   -6.1173 H   0  0  0  0  0  0  0  0  0  0  0  0
    4.7828    9.0619   -5.3725 H   0  0  0  0  0  0  0  0  0  0  0  0
    4.9116    6.8634   -3.7592 H   0  0  0  0  0  0  0  0  0  0  0  0
    8.6239    0.5972   -2.0896 H   0  0  0  0  0  0  0  0  0  0  0  0
  1  2  1  0  0  0  0
  1 31  1  0  0  0  0
  1 32  1  0  0  0  0
  1 33  1  0  0  0  0
  2  3  1  0  0  0  0
  3  4  2  0  0  0  0
  3 30  1  0  0  0  0
  4  5  1  0  0  0  0
  4 34  1  0  0  0  0
  5  6  2  0  0  0  0
  5 35  1  0  0  0  0
  6  7  1  0  0  0  0
  6 36  1  0  0  0  0
  7  8  1  0  0  0  0
  7 30  2  0  0  0  0
  8  9  2  0  0  0  0
  8 13  1  0  0  0  0
  9 10  1  0  0  0  0
  9 37  1  0  0  0  0
 10 11  2  0  0  0  0
 10 38  1  0  0  0  0
 11 12  1  0  0  0  0
 11 39  1  0  0  0  0
 12 13  2  0  0  0  0
 12 40  1  0  0  0  0
 13 14  1  0  0  0  0
 14 15  1  0  0  0  0
 14 41  1  0  0  0  0
 15 16  2  0  0  0  0
 15 17  1  0  0  0  0
 17 18  2  0  0  0  0
 17 29  1  0  0  0  0
 18 19  1  0  0  0  0
 18 42  1  0  0  0  0
 19 20  2  0  0  0  0
 19 43  1  0  0  0  0
 20 21  1  0  0  0  0
 20 28  1  0  0  0  0
 21 22  2  0  0  0  0
 21 23  1  0  0  0  0
 23 24  1  0  0  0  0
 23 25  1  0  0  0  0
 24 44  1  0  0  0  0
 24 45  1  0  0  0  0
 24 46  1  0  0  0  0
 25 26  1  0  0  0  0
 25 27  2  0  0  0  0
 26 47  1  0  0  0  0
 26 48  1  0  0  0  0
 26 49  1  0  0  0  0
 27 28  1  0  0  0  0
 27 50  1  0  0  0  0
 28 29  2  0  0  0  0
 30 51  1  0  0  0  0
M  END
$$$$
