
 OpenBabel01122422373D

 46 49  0  0  1  0  0  0  0  0999 V2000
    2.8354    0.1120   -0.9938 O   0  0  0  0  0  0  0  0  0  0  0  0
    2.2692   -0.0806    0.0738 C   0  0  0  0  0  0  0  0  0  0  0  0
    0.9067   -0.1873    0.2539 N   0  0  0  0  0  0  0  0  0  0  0  0
   -0.0616   -0.0997   -0.7696 C   0  0  0  0  0  0  0  0  0  0  0  0
    0.1942   -0.1625   -2.1235 C   0  0  0  0  0  0  0  0  0  0  0  0
   -0.7510   -0.0242   -3.0801 N   0  0  0  0  0  0  0  0  0  0  0  0
   -2.0197    0.2031   -2.6678 C   0  0  0  0  0  0  0  0  0  0  0  0
   -3.0529    0.4790   -3.7072 C   0  0  0  0  0  0  0  0  0  0  0  0
   -2.8925   -0.0781   -4.9330 N   0  0  0  0  0  0  0  0  0  0  0  0
   -3.8148    0.2234   -5.8639 C   0  0  0  0  0  0  0  0  0  0  0  0
   -4.8803    1.0588   -5.6344 C   0  0  0  0  0  0  0  0  0  0  0  0
   -4.9630    1.5799   -4.3659 C   0  0  0  0  0  0  0  0  0  0  0  0
   -4.0794    1.3070   -3.3886 N   0  0  0  0  0  0  0  0  0  0  0  0
   -2.3826    0.2366   -1.3617 N   0  0  0  0  0  0  0  0  0  0  0  0
   -1.3961    0.0700   -0.4536 C   0  0  0  0  0  0  0  0  0  0  0  0
    2.9576   -0.2441    1.2493 N   0  0  0  0  0  0  0  0  0  0  0  0
    4.4110   -0.1351    1.3119 C   0  0  3  0  0  0  0  0  0  0  0  0
    4.7787    1.3011    1.6811 C   0  0  0  0  0  0  0  0  0  0  0  0
    4.8700    1.7305    3.0130 C   0  0  0  0  0  0  0  0  0  0  0  0
    5.2079    3.0485    3.2738 C   0  0  0  0  0  0  0  0  0  0  0  0
    5.4386    3.9679    2.3142 N   0  0  0  0  0  0  0  0  0  0  0  0
    5.3221    3.5516    1.0353 C   0  0  0  0  0  0  0  0  0  0  0  0
    5.0016    2.2512    0.6755 C   0  0  0  0  0  0  0  0  0  0  0  0
    5.0217   -1.1916    2.2456 C   0  0  0  0  0  0  0  0  0  0  0  0
    4.2396   -2.1697    2.8914 C   0  0  0  0  0  0  0  0  0  0  0  0
    4.8220   -3.1043    3.7494 C   0  0  0  0  0  0  0  0  0  0  0  0
    6.1932   -3.0825    3.9602 C   0  0  0  0  0  0  0  0  0  0  0  0
    6.7464   -3.9767    4.7892 F   0  0  0  0  0  0  0  0  0  0  0  0
    6.9964   -2.1486    3.3209 C   0  0  0  0  0  0  0  0  0  0  0  0
    6.4159   -1.2131    2.4599 C   0  0  0  0  0  0  0  0  0  0  0  0
    0.5712   -0.2003    1.2040 H   0  0  0  0  0  0  0  0  0  0  0  0
    1.1880   -0.3424   -2.5215 H   0  0  0  0  0  0  0  0  0  0  0  0
   -3.6618   -0.2414   -6.8336 H   0  0  0  0  0  0  0  0  0  0  0  0
   -5.6051    1.2912   -6.4017 H   0  0  0  0  0  0  0  0  0  0  0  0
   -5.7656    2.2570   -4.0884 H   0  0  0  0  0  0  0  0  0  0  0  0
   -1.7385    0.1095    0.5774 H   0  0  0  0  0  0  0  0  0  0  0  0
    2.4651   -0.1078    2.1179 H   0  0  0  0  0  0  0  0  0  0  0  0
    4.8183   -0.3553    0.3161 H   0  0  0  0  0  0  0  0  0  0  0  0
    4.7024    1.0507    3.8453 H   0  0  0  0  0  0  0  0  0  0  0  0
    5.3171    3.4073    4.2930 H   0  0  0  0  0  0  0  0  0  0  0  0
    5.4991    4.3142    0.2830 H   0  0  0  0  0  0  0  0  0  0  0  0
    4.9210    1.9885   -0.3765 H   0  0  0  0  0  0  0  0  0  0  0  0
    3.1661   -2.2270    2.7329 H   0  0  0  0  0  0  0  0  0  0  0  0
    4.2132   -3.8506    4.2500 H   0  0  0  0  0  0  0  0  0  0  0  0
    8.0675   -2.1535    3.4967 H   0  0  0  0  0  0  0  0  0  0  0  0
    7.0618   -0.4880    1.9653 H   0  0  0  0  0  0  0  0  0  0  0  0
  1  2  2  0  0  0  0
  2  3  1  0  0  0  0
  2 16  1  0  0  0  0
  3  4  1  0  0  0  0
  3 31  1  0  0  0  0
  4  5  2  0  0  0  0
  4 15  1  0  0  0  0
  5  6  1  0  0  0  0
  5 32  1  0  0  0  0
  6  7  2  0  0  0  0
  7  8  1  0  0  0  0
  7 14  1  0  0  0  0
  8  9  2  0  0  0  0
  8 13  1  0  0  0  0
  9 10  1  0  0  0  0
 10 11  2  0  0  0  0
 10 33  1  0  0  0  0
 11 12  1  0  0  0  0
 11 34  1  0  0  0  0
 12 13  2  0  0  0  0
 12 35  1  0  0  0  0
 14 15  2  0  0  0  0
 15 36  1  0  0  0  0
 16 17  1  0  0  0  0
 16 37  1  0  0  0  0
 17 18  1  0  0  0  0
 17 24  1  0  0  0  0
 17 38  1  0  0  0  0
 18 19  2  0  0  0  0
 18 23  1  0  0  0  0
 19 20  1  0  0  0  0
 19 39  1  0  0  0  0
 20 21  2  0  0  0  0
 20 40  1  0  0  0  0
 21 22  1  0  0  0  0
 22 23  2  0  0  0  0
 22 41  1  0  0  0  0
 23 42  1  0  0  0  0
 24 25  2  0  0  0  0
 24 30  1  0  0  0  0
 25 26  1  0  0  0  0
 25 43  1  0  0  0  0
 26 27  2  0  0  0  0
 26 44  1  0  0  0  0
 27 28  1  0  0  0  0
 27 29  1  0  0  0  0
 29 30  2  0  0  0  0
 29 45  1  0  0  0  0
 30 46  1  0  0  0  0
M  END
$$$$
