
 OpenBabel01122422373D

 44 47  0  0  0  0  0  0  0  0999 V2000
    5.1575    0.0735   -5.0521 C   0  0  0  0  0  0  0  0  0  0  0  0
    5.5947   -0.0577   -3.6985 O   0  0  0  0  0  0  0  0  0  0  0  0
    4.9145   -1.0001   -2.9838 C   0  0  0  0  0  0  0  0  0  0  0  0
    3.9814   -1.6658   -3.4503 O   0  0  0  0  0  0  0  0  0  0  0  0
    5.4175   -1.1770   -1.6106 C   0  0  0  0  0  0  0  0  0  0  0  0
    6.4307   -0.4682   -1.0755 N   0  0  0  0  0  0  0  0  0  0  0  0
    6.6332   -1.0864    0.1102 N   0  0  0  0  0  0  0  0  0  0  0  0
    7.7134   -0.7597    0.9596 C   0  0  0  0  0  0  0  0  0  0  0  0
    8.6313    0.2112    0.5575 C   0  0  0  0  0  0  0  0  0  0  0  0
    9.6748    0.5727    1.4015 C   0  0  0  0  0  0  0  0  0  0  0  0
    9.8473   -0.0404    2.6384 C   0  0  0  0  0  0  0  0  0  0  0  0
   10.9003    0.3167    3.5036 N   0  0  0  0  0  0  0  0  0  0  0  0
   11.8970    1.2748    3.2637 C   0  0  0  0  0  0  0  0  0  0  0  0
   12.0227    1.9765    2.2870 O   0  0  0  0  0  0  0  0  0  0  0  0
   12.9233    1.4172    4.3249 C   0  0  0  0  0  0  0  0  0  0  0  0
   13.1982    0.2990    5.0787 C   0  0  0  0  0  0  0  0  0  0  0  0
   12.5165   -0.8427    4.9089 F   0  0  0  0  0  0  0  0  0  0  0  0
   14.1441    0.3597    6.0750 C   0  0  0  0  0  0  0  0  0  0  0  0
   14.4746   -0.8311    6.7042 C   0  0  0  0  0  0  0  0  0  0  0  0
   14.3306   -0.7424    8.0590 C   0  0  0  0  0  0  0  0  0  0  0  0
   14.8043    0.4079    8.6703 C   0  0  0  0  0  0  0  0  0  0  0  0
   15.1306    1.5374    7.8773 C   0  0  0  0  0  0  0  0  0  0  0  0
   14.6694    1.5581    6.5324 C   0  0  0  0  0  0  0  0  0  0  0  0
   14.5467    2.6736    5.6547 C   0  0  0  0  0  0  0  0  0  0  0  0
   13.6848    2.5786    4.5369 C   0  0  0  0  0  0  0  0  0  0  0  0
    8.9514   -1.0518    3.0232 C   0  0  0  0  0  0  0  0  0  0  0  0
    7.8811   -1.4059    2.1896 C   0  0  0  0  0  0  0  0  0  0  0  0
    5.6747   -2.0432    0.2996 C   0  0  0  0  0  0  0  0  0  0  0  0
    4.9124   -2.1416   -0.7568 N   0  0  0  0  0  0  0  0  0  0  0  0
    5.8614    0.7223   -5.5797 H   0  0  0  0  0  0  0  0  0  0  0  0
    4.1678    0.5375   -5.0788 H   0  0  0  0  0  0  0  0  0  0  0  0
    5.1439   -0.8960   -5.5612 H   0  0  0  0  0  0  0  0  0  0  0  0
    8.5455    0.7146   -0.4031 H   0  0  0  0  0  0  0  0  0  0  0  0
   10.3433    1.3519    1.0558 H   0  0  0  0  0  0  0  0  0  0  0  0
   10.9953   -0.2547    4.3357 H   0  0  0  0  0  0  0  0  0  0  0  0
   15.5506   -1.0394    6.4702 H   0  0  0  0  0  0  0  0  0  0  0  0
   13.7855   -1.5273    8.5800 H   0  0  0  0  0  0  0  0  0  0  0  0
   14.8276    0.4569    9.7564 H   0  0  0  0  0  0  0  0  0  0  0  0
   15.5194    2.4197    8.3597 H   0  0  0  0  0  0  0  0  0  0  0  0
   15.0578    3.6056    5.8659 H   0  0  0  0  0  0  0  0  0  0  0  0
   13.5795    3.4274    3.8603 H   0  0  0  0  0  0  0  0  0  0  0  0
    9.0735   -1.5848    3.9636 H   0  0  0  0  0  0  0  0  0  0  0  0
    7.1946   -2.1791    2.5222 H   0  0  0  0  0  0  0  0  0  0  0  0
    5.5992   -2.6486    1.1903 H   0  0  0  0  0  0  0  0  0  0  0  0
  1  2  1  0  0  0  0
  1 30  1  0  0  0  0
  1 31  1  0  0  0  0
  1 32  1  0  0  0  0
  2  3  1  0  0  0  0
  3  4  2  0  0  0  0
  3  5  1  0  0  0  0
  5  6  2  0  0  0  0
  5 29  1  0  0  0  0
  6  7  1  0  0  0  0
  7  8  1  0  0  0  0
  7 28  1  0  0  0  0
  8  9  2  0  0  0  0
  8 27  1  0  0  0  0
  9 10  1  0  0  0  0
  9 33  1  0  0  0  0
 10 11  2  0  0  0  0
 10 34  1  0  0  0  0
 11 12  1  0  0  0  0
 11 26  1  0  0  0  0
 12 13  1  0  0  0  0
 12 35  1  0  0  0  0
 13 14  2  0  0  0  0
 13 15  1  0  0  0  0
 15 16  2  0  0  0  0
 15 25  1  0  0  0  0
 16 17  1  0  0  0  0
 16 18  1  0  0  0  0
 18 19  2  0  0  0  0
 18 23  1  0  0  0  0
 19 20  1  0  0  0  0
 19 36  1  0  0  0  0
 20 21  2  0  0  0  0
 20 37  1  0  0  0  0
 21 22  1  0  0  0  0
 21 38  1  0  0  0  0
 22 23  2  0  0  0  0
 22 39  1  0  0  0  0
 23 24  1  0  0  0  0
 24 25  2  0  0  0  0
 24 40  1  0  0  0  0
 25 41  1  0  0  0  0
 26 27  2  0  0  0  0
 26 42  1  0  0  0  0
 27 43  1  0  0  0  0
 28 29  2  0  0  0  0
 28 44  1  0  0  0  0
M  END
$$$$
