
 OpenBabel01122422373D

 48 51  0  0  0  0  0  0  0  0999 V2000
    0.3766    3.7024    1.1931 O   0  0  0  0  0  0  0  0  0  0  0  0
    1.2865    3.5399    0.3949 C   0  0  0  0  0  0  0  0  0  0  0  0
    1.2433    3.9867   -0.8792 O   0  0  0  0  0  0  0  0  0  0  0  0
    2.5196    2.7969    0.7300 C   0  0  0  0  0  0  0  0  0  0  0  0
    2.4384    1.7133    1.6050 C   0  0  0  0  0  0  0  0  0  0  0  0
    3.5893    0.9980    1.9053 C   0  0  0  0  0  0  0  0  0  0  0  0
    4.8040    1.3527    1.3049 C   0  0  0  0  0  0  0  0  0  0  0  0
    4.9302    2.4676    0.4392 C   0  0  0  0  0  0  0  0  0  0  0  0
    6.2554    2.8176   -0.1680 C   0  0  0  0  0  0  0  0  0  0  0  0
    7.4117    2.5695    0.6212 C   0  0  0  0  0  0  0  0  0  0  0  0
    8.7075    2.7028    0.1245 C   0  0  0  0  0  0  0  0  0  0  0  0
    8.8970    3.1016   -1.1835 C   0  0  0  0  0  0  0  0  0  0  0  0
    7.7941    3.4114   -1.9745 C   0  0  0  0  0  0  0  0  0  0  0  0
    6.4658    3.3167   -1.4907 C   0  0  0  0  0  0  0  0  0  0  0  0
    5.3270    3.7541   -2.4033 C   0  0  0  0  0  0  0  0  0  0  0  0
    5.7119    4.2531   -3.7064 N   0  0  0  0  0  0  0  0  0  0  0  0
    4.8708    4.2306   -4.7981 C   0  0  0  0  0  0  0  0  0  0  0  0
    3.7398    3.7593   -4.7800 O   0  0  0  0  0  0  0  0  0  0  0  0
    5.4674    4.8267   -6.0448 C   0  0  0  0  0  0  0  0  0  0  0  0
    4.7553    4.8010   -7.2387 C   0  0  0  0  0  0  0  0  0  0  0  0
    5.3989    5.2608   -8.3908 C   0  0  0  0  0  0  0  0  0  0  0  0
    4.7534    5.2472   -9.6582 N   0  0  0  0  0  0  0  0  0  0  0  0
    3.4603    4.8708   -9.9546 C   0  0  0  0  0  0  0  0  0  0  0  0
    3.2922    5.0253  -11.3105 C   0  0  0  0  0  0  0  0  0  0  0  0
    4.5311    5.4941  -11.7662 C   0  0  0  0  0  0  0  0  0  0  0  0
    5.4162    5.6389  -10.7789 N   0  0  0  0  0  0  0  0  0  0  0  0
    6.7143    5.7312   -8.2973 C   0  0  0  0  0  0  0  0  0  0  0  0
    7.3262    5.7463   -7.0550 C   0  0  0  0  0  0  0  0  0  0  0  0
    6.7373    5.3091   -5.9216 N   0  0  0  0  0  0  0  0  0  0  0  0
    3.7597    3.1998    0.2112 C   0  0  0  0  0  0  0  0  0  0  0  0
    1.9300    3.6288   -1.4760 H   0  0  0  0  0  0  0  0  0  0  0  0
    1.4878    1.4351    2.0549 H   0  0  0  0  0  0  0  0  0  0  0  0
    3.5482    0.1612    2.5991 H   0  0  0  0  0  0  0  0  0  0  0  0
    5.6693    0.7335    1.5416 H   0  0  0  0  0  0  0  0  0  0  0  0
    7.3143    2.2458    1.6568 H   0  0  0  0  0  0  0  0  0  0  0  0
    9.5600    2.4735    0.7578 H   0  0  0  0  0  0  0  0  0  0  0  0
    9.8997    3.1806   -1.5947 H   0  0  0  0  0  0  0  0  0  0  0  0
    7.9987    3.7163   -2.9976 H   0  0  0  0  0  0  0  0  0  0  0  0
    4.8242    4.6111   -1.9491 H   0  0  0  0  0  0  0  0  0  0  0  0
    4.6145    2.9333   -2.5374 H   0  0  0  0  0  0  0  0  0  0  0  0
    6.5015    4.8868   -3.7975 H   0  0  0  0  0  0  0  0  0  0  0  0
    3.7476    4.4035   -7.2429 H   0  0  0  0  0  0  0  0  0  0  0  0
    2.7682    4.5362   -9.1975 H   0  0  0  0  0  0  0  0  0  0  0  0
    2.3996    4.8264  -11.8852 H   0  0  0  0  0  0  0  0  0  0  0  0
    4.8278    5.7404  -12.7782 H   0  0  0  0  0  0  0  0  0  0  0  0
    7.2612    6.0830   -9.1683 H   0  0  0  0  0  0  0  0  0  0  0  0
    8.3428    6.1147   -6.9427 H   0  0  0  0  0  0  0  0  0  0  0  0
    3.7906    4.1316   -0.3378 H   0  0  0  0  0  0  0  0  0  0  0  0
  1  2  2  0  0  0  0
  2  3  1  0  0  0  0
  2  4  1  0  0  0  0
  3 31  1  0  0  0  0
  4  5  2  0  0  0  0
  4 30  1  0  0  0  0
  5  6  1  0  0  0  0
  5 32  1  0  0  0  0
  6  7  2  0  0  0  0
  6 33  1  0  0  0  0
  7  8  1  0  0  0  0
  7 34  1  0  0  0  0
  8  9  1  0  0  0  0
  8 30  2  0  0  0  0
  9 10  2  0  0  0  0
  9 14  1  0  0  0  0
 10 11  1  0  0  0  0
 10 35  1  0  0  0  0
 11 12  2  0  0  0  0
 11 36  1  0  0  0  0
 12 13  1  0  0  0  0
 12 37  1  0  0  0  0
 13 14  2  0  0  0  0
 13 38  1  0  0  0  0
 14 15  1  0  0  0  0
 15 16  1  0  0  0  0
 15 39  1  0  0  0  0
 15 40  1  0  0  0  0
 16 17  1  0  0  0  0
 16 41  1  0  0  0  0
 17 18  2  0  0  0  0
 17 19  1  0  0  0  0
 19 20  2  0  0  0  0
 19 29  1  0  0  0  0
 20 21  1  0  0  0  0
 20 42  1  0  0  0  0
 21 22  1  0  0  0  0
 21 27  2  0  0  0  0
 22 23  1  0  0  0  0
 22 26  1  0  0  0  0
 23 24  2  0  0  0  0
 23 43  1  0  0  0  0
 24 25  1  0  0  0  0
 24 44  1  0  0  0  0
 25 26  2  0  0  0  0
 25 45  1  0  0  0  0
 27 28  1  0  0  0  0
 27 46  1  0  0  0  0
 28 29  2  0  0  0  0
 28 47  1  0  0  0  0
 30 48  1  0  0  0  0
M  END
$$$$
