
 OpenBabel01122422373D

 45 48  0  0  0  0  0  0  0  0999 V2000
   -1.7575   -1.4317   -0.1431 C   0  0  0  0  0  0  0  0  0  0  0  0
   -0.4745   -0.7498   -0.0485 N   0  0  0  0  0  0  0  0  0  0  0  0
    0.7680   -1.4041   -0.1338 C   0  0  0  0  0  0  0  0  0  0  0  0
    0.8730   -2.8834   -0.4514 C   0  0  0  0  0  0  0  0  0  0  0  0
    0.0321   -3.3880   -1.1900 O   0  0  0  0  0  0  0  0  0  0  0  0
    1.9265   -3.5759    0.1404 N   0  0  0  0  0  0  0  0  0  0  0  0
    2.1495   -4.9780    0.0351 C   0  0  0  0  0  0  0  0  0  0  0  0
    1.4078   -5.7987   -0.8234 C   0  0  0  0  0  0  0  0  0  0  0  0
    1.5562   -7.1828   -0.8110 C   0  0  0  0  0  0  0  0  0  0  0  0
    2.4657   -7.7644    0.0540 C   0  0  0  0  0  0  0  0  0  0  0  0
    2.5564   -9.1034    0.0511 F   0  0  0  0  0  0  0  0  0  0  0  0
    3.2607   -6.9811    0.9001 C   0  0  0  0  0  0  0  0  0  0  0  0
    4.1773   -7.6072    1.8315 C   0  0  0  0  0  0  0  0  0  0  0  0
    4.0110   -8.8449    2.4070 C   0  0  0  0  0  0  0  0  0  0  0  0
    5.1202   -9.0303    3.1914 N   0  0  0  0  0  0  0  0  0  0  0  0
    5.4657  -10.1736    3.9528 C   0  0  0  0  0  0  0  0  0  0  0  0
    4.6660  -11.3241    3.9323 C   0  0  0  0  0  0  0  0  0  0  0  0
    5.0274  -12.4469    4.6800 C   0  0  0  0  0  0  0  0  0  0  0  0
    6.1882  -12.4309    5.4509 C   0  0  0  0  0  0  0  0  0  0  0  0
    6.9917  -11.2925    5.4785 C   0  0  0  0  0  0  0  0  0  0  0  0
    6.6355  -10.1613    4.7311 C   0  0  0  0  0  0  0  0  0  0  0  0
    5.8945   -7.9157    3.1397 N   0  0  0  0  0  0  0  0  0  0  0  0
    5.3250   -7.0447    2.3111 N   0  0  0  0  0  0  0  0  0  0  0  0
    3.1163   -5.5779    0.8627 C   0  0  0  0  0  0  0  0  0  0  0  0
    1.9052   -0.6845   -0.0694 C   0  0  0  0  0  0  0  0  0  0  0  0
    1.8667    0.7458    0.1030 C   0  0  0  0  0  0  0  0  0  0  0  0
    0.6996    1.3925    0.1635 C   0  0  0  0  0  0  0  0  0  0  0  0
   -0.5732    0.6385    0.0852 C   0  0  0  0  0  0  0  0  0  0  0  0
   -1.6304    1.2633    0.1397 O   0  0  0  0  0  0  0  0  0  0  0  0
   -1.7061   -2.5170   -0.1730 H   0  0  0  0  0  0  0  0  0  0  0  0
   -2.2851   -1.0660   -1.0322 H   0  0  0  0  0  0  0  0  0  0  0  0
   -2.3588   -1.1665    0.7341 H   0  0  0  0  0  0  0  0  0  0  0  0
    2.5267   -3.0766    0.7849 H   0  0  0  0  0  0  0  0  0  0  0  0
    0.6840   -5.4006   -1.5253 H   0  0  0  0  0  0  0  0  0  0  0  0
    0.9492   -7.8059   -1.4601 H   0  0  0  0  0  0  0  0  0  0  0  0
    3.2275   -9.5791    2.3132 H   0  0  0  0  0  0  0  0  0  0  0  0
    3.7567  -11.3889    3.3396 H   0  0  0  0  0  0  0  0  0  0  0  0
    4.4053  -13.3395    4.6584 H   0  0  0  0  0  0  0  0  0  0  0  0
    6.4664  -13.3091    6.0283 H   0  0  0  0  0  0  0  0  0  0  0  0
    7.8964  -11.2804    6.0812 H   0  0  0  0  0  0  0  0  0  0  0  0
    7.2793   -9.2884    4.7731 H   0  0  0  0  0  0  0  0  0  0  0  0
    3.7338   -4.9694    1.5210 H   0  0  0  0  0  0  0  0  0  0  0  0
    2.8880   -1.1240   -0.2042 H   0  0  0  0  0  0  0  0  0  0  0  0
    2.8030    1.2922    0.1472 H   0  0  0  0  0  0  0  0  0  0  0  0
    0.6198    2.4675    0.2615 H   0  0  0  0  0  0  0  0  0  0  0  0
  1  2  1  0  0  0  0
  1 30  1  0  0  0  0
  1 31  1  0  0  0  0
  1 32  1  0  0  0  0
  2  3  1  0  0  0  0
  2 28  1  0  0  0  0
  3  4  1  0  0  0  0
  3 25  2  0  0  0  0
  4  5  2  0  0  0  0
  4  6  1  0  0  0  0
  6  7  1  0  0  0  0
  6 33  1  0  0  0  0
  7  8  2  0  0  0  0
  7 24  1  0  0  0  0
  8  9  1  0  0  0  0
  8 34  1  0  0  0  0
  9 10  2  0  0  0  0
  9 35  1  0  0  0  0
 10 11  1  0  0  0  0
 10 12  1  0  0  0  0
 12 13  1  0  0  0  0
 12 24  2  0  0  0  0
 13 14  2  0  0  0  0
 13 23  1  0  0  0  0
 14 15  1  0  0  0  0
 14 36  1  0  0  0  0
 15 16  1  0  0  0  0
 15 22  1  0  0  0  0
 16 17  2  0  0  0  0
 16 21  1  0  0  0  0
 17 18  1  0  0  0  0
 17 37  1  0  0  0  0
 18 19  2  0  0  0  0
 18 38  1  0  0  0  0
 19 20  1  0  0  0  0
 19 39  1  0  0  0  0
 20 21  2  0  0  0  0
 20 40  1  0  0  0  0
 21 41  1  0  0  0  0
 22 23  2  0  0  0  0
 24 42  1  0  0  0  0
 25 26  1  0  0  0  0
 25 43  1  0  0  0  0
 26 27  2  0  0  0  0
 26 44  1  0  0  0  0
 27 28  1  0  0  0  0
 27 45  1  0  0  0  0
 28 29  2  0  0  0  0
M  END
$$$$
