
 OpenBabel01122422373D

 44 47  0  0  0  0  0  0  0  0999 V2000
    0.9548    1.7879    0.1898 C   0  0  0  0  0  0  0  0  0  0  0  0
    2.1748    1.6080   -0.5142 O   0  0  0  0  0  0  0  0  0  0  0  0
    3.2901    2.2672   -0.0634 C   0  0  0  0  0  0  0  0  0  0  0  0
    3.2818    3.1622    1.0212 C   0  0  0  0  0  0  0  0  0  0  0  0
    4.4575    3.7640    1.4445 C   0  0  0  0  0  0  0  0  0  0  0  0
    5.6632    3.4612    0.8244 C   0  0  0  0  0  0  0  0  0  0  0  0
    5.6867    2.5862   -0.2659 C   0  0  0  0  0  0  0  0  0  0  0  0
    4.5005    2.0042   -0.7493 C   0  0  0  0  0  0  0  0  0  0  0  0
    4.5148    1.2101   -1.9783 C   0  0  0  0  0  0  0  0  0  0  0  0
    3.5900    0.9576   -2.9698 C   0  0  0  0  0  0  0  0  0  0  0  0
    4.1196    0.1493   -3.9386 N   0  0  0  0  0  0  0  0  0  0  0  0
    5.3535   -0.0659   -3.5235 C   0  0  0  0  0  0  0  0  0  0  0  0
    6.4216   -0.8976   -4.1546 C   0  0  0  0  0  0  0  0  0  0  0  0
    5.8912   -1.5379   -5.3321 O   0  0  0  0  0  0  0  0  0  0  0  0
    6.0333   -0.8313   -6.4768 C   0  0  0  0  0  0  0  0  0  0  0  0
    6.6222    0.2383   -6.5734 O   0  0  0  0  0  0  0  0  0  0  0  0
    5.3950   -1.5364   -7.6350 C   0  0  0  0  0  0  0  0  0  0  0  0
    5.0950   -0.7399   -8.6898 C   0  0  0  0  0  0  0  0  0  0  0  0
    3.9685    0.1500   -8.3054 C   0  0  0  0  0  0  0  0  0  0  0  0
    4.0008    1.5267   -8.4905 C   0  0  0  0  0  0  0  0  0  0  0  0
    2.9606    2.2913   -7.9654 C   0  0  0  0  0  0  0  0  0  0  0  0
    1.8860    1.6670   -7.3236 C   0  0  0  0  0  0  0  0  0  0  0  0
    0.9218    2.4254   -6.7859 F   0  0  0  0  0  0  0  0  0  0  0  0
    1.8179    0.2834   -7.1784 C   0  0  0  0  0  0  0  0  0  0  0  0
    2.8906   -0.4673   -7.6289 C   0  0  0  0  0  0  0  0  0  0  0  0
    3.0085   -1.8427   -7.3354 N   0  0  0  0  0  0  0  0  0  0  0  0
    4.2504   -2.4688   -7.3542 C   0  0  0  0  0  0  0  0  0  0  0  0
    4.4061   -3.6612   -7.1218 O   0  0  0  0  0  0  0  0  0  0  0  0
    5.6717    0.5585   -2.3370 O   0  0  0  0  0  0  0  0  0  0  0  0
    0.2167    1.1113   -0.2525 H   0  0  0  0  0  0  0  0  0  0  0  0
    0.5876    2.8109    0.0672 H   0  0  0  0  0  0  0  0  0  0  0  0
    1.0536    1.5213    1.2471 H   0  0  0  0  0  0  0  0  0  0  0  0
    2.3620    3.4157    1.5407 H   0  0  0  0  0  0  0  0  0  0  0  0
    4.4385    4.4661    2.2789 H   0  0  0  0  0  0  0  0  0  0  0  0
    6.5871    3.9219    1.1724 H   0  0  0  0  0  0  0  0  0  0  0  0
    6.6378    2.3823   -0.7536 H   0  0  0  0  0  0  0  0  0  0  0  0
    2.5779    1.3297   -3.0347 H   0  0  0  0  0  0  0  0  0  0  0  0
    6.7175   -1.6922   -3.4632 H   0  0  0  0  0  0  0  0  0  0  0  0
    7.3138   -0.3015   -4.3749 H   0  0  0  0  0  0  0  0  0  0  0  0
    4.8069   -1.2202   -9.6306 H   0  0  0  0  0  0  0  0  0  0  0  0
    4.8516    2.0047   -8.9682 H   0  0  0  0  0  0  0  0  0  0  0  0
    2.9952    3.3748   -8.0190 H   0  0  0  0  0  0  0  0  0  0  0  0
    0.9899   -0.1608   -6.6395 H   0  0  0  0  0  0  0  0  0  0  0  0
    2.2300   -2.3712   -6.9614 H   0  0  0  0  0  0  0  0  0  0  0  0
  1  2  1  0  0  0  0
  1 30  1  0  0  0  0
  1 31  1  0  0  0  0
  1 32  1  0  0  0  0
  2  3  1  0  0  0  0
  3  4  2  0  0  0  0
  3  8  1  0  0  0  0
  4  5  1  0  0  0  0
  4 33  1  0  0  0  0
  5  6  2  0  0  0  0
  5 34  1  0  0  0  0
  6  7  1  0  0  0  0
  6 35  1  0  0  0  0
  7  8  2  0  0  0  0
  7 36  1  0  0  0  0
  8  9  1  0  0  0  0
  9 10  2  0  0  0  0
  9 29  1  0  0  0  0
 10 11  1  0  0  0  0
 10 37  1  0  0  0  0
 11 12  2  0  0  0  0
 12 13  1  0  0  0  0
 12 29  1  0  0  0  0
 13 14  1  0  0  0  0
 13 38  1  0  0  0  0
 13 39  1  0  0  0  0
 14 15  1  0  0  0  0
 15 16  2  0  0  0  0
 15 17  1  0  0  0  0
 17 18  2  0  0  0  0
 17 27  1  0  0  0  0
 18 19  1  0  0  0  0
 18 40  1  0  0  0  0
 19 20  2  0  0  0  0
 19 25  1  0  0  0  0
 20 21  1  0  0  0  0
 20 41  1  0  0  0  0
 21 22  2  0  0  0  0
 21 42  1  0  0  0  0
 22 23  1  0  0  0  0
 22 24  1  0  0  0  0
 24 25  2  0  0  0  0
 24 43  1  0  0  0  0
 25 26  1  0  0  0  0
 26 27  1  0  0  0  0
 26 44  1  0  0  0  0
 27 28  2  0  0  0  0
M  END
$$$$
