
 OpenBabel01122422373D

 47 50  0  0  0  0  0  0  0  0999 V2000
    1.3141    0.8644   -0.2176 O   0  0  0  0  0  0  0  0  0  0  0  0
    2.3604    0.2448   -0.0499 C   0  0  0  0  0  0  0  0  0  0  0  0
    2.8644   -0.7096   -0.9121 N   0  0  0  0  0  0  0  0  0  0  0  0
    2.2279   -1.1915   -2.0775 C   0  0  0  0  0  0  0  0  0  0  0  0
    1.1192   -0.5794   -2.6651 C   0  0  0  0  0  0  0  0  0  0  0  0
    0.4843   -1.1620   -3.7622 C   0  0  0  0  0  0  0  0  0  0  0  0
    0.9534   -2.3656   -4.2796 C   0  0  0  0  0  0  0  0  0  0  0  0
    2.0665   -2.9814   -3.7087 C   0  0  0  0  0  0  0  0  0  0  0  0
    2.4262   -4.1819   -4.2610 O   0  0  0  0  0  0  0  0  0  0  0  0
    3.1485   -5.0537   -3.3828 C   0  0  0  0  0  0  0  0  0  0  0  0
    3.0304   -6.4997   -3.8010 C   0  0  0  0  0  0  0  0  0  0  0  0
    1.9019   -6.9673   -4.4709 C   0  0  0  0  0  0  0  0  0  0  0  0
    1.8000   -8.3260   -4.7504 C   0  0  0  0  0  0  0  0  0  0  0  0
    2.8146   -9.1826   -4.3458 C   0  0  0  0  0  0  0  0  0  0  0  0
    3.8970   -8.6428   -3.6728 C   0  0  0  0  0  0  0  0  0  0  0  0
    4.0256   -7.3290   -3.3891 N   0  0  0  0  0  0  0  0  0  0  0  0
    2.7256   -2.3723   -2.6367 C   0  0  0  0  0  0  0  0  0  0  0  0
    3.1543    0.4345    1.1350 C   0  0  0  0  0  0  0  0  0  0  0  0
    4.5261    0.5738    1.2306 C   0  0  0  0  0  0  0  0  0  0  0  0
    4.9065    0.9299    2.4902 N   0  0  0  0  0  0  0  0  0  0  0  0
    3.7842    1.0142    3.1682 C   0  0  0  0  0  0  0  0  0  0  0  0
    2.6768    0.6643    2.4210 N   0  0  0  0  0  0  0  0  0  0  0  0
    1.3518    0.5167    2.9306 C   0  0  0  0  0  0  0  0  0  0  0  0
    0.9445    1.2439    4.0604 C   0  0  0  0  0  0  0  0  0  0  0  0
   -0.3529    1.0950    4.5660 C   0  0  0  0  0  0  0  0  0  0  0  0
   -1.2346    0.2113    3.9529 C   0  0  0  0  0  0  0  0  0  0  0  0
   -2.5024    0.0265    4.4168 O   0  0  0  0  0  0  0  0  0  0  0  0
   -0.8438   -0.5210    2.8422 C   0  0  0  0  0  0  0  0  0  0  0  0
    0.4486   -0.3754    2.3339 C   0  0  0  0  0  0  0  0  0  0  0  0
    3.6785   -1.2224   -0.5998 H   0  0  0  0  0  0  0  0  0  0  0  0
    0.7196    0.3597   -2.2966 H   0  0  0  0  0  0  0  0  0  0  0  0
   -0.3870   -0.6781   -4.1964 H   0  0  0  0  0  0  0  0  0  0  0  0
    0.4382   -2.8293   -5.1165 H   0  0  0  0  0  0  0  0  0  0  0  0
    2.7549   -4.9991   -2.3594 H   0  0  0  0  0  0  0  0  0  0  0  0
    4.2061   -4.7643   -3.3918 H   0  0  0  0  0  0  0  0  0  0  0  0
    1.1080   -6.2882   -4.7659 H   0  0  0  0  0  0  0  0  0  0  0  0
    0.9294   -8.7114   -5.2732 H   0  0  0  0  0  0  0  0  0  0  0  0
    2.7607  -10.2463   -4.5447 H   0  0  0  0  0  0  0  0  0  0  0  0
    4.7111   -9.2720   -3.3258 H   0  0  0  0  0  0  0  0  0  0  0  0
    3.6109   -2.8294   -2.2076 H   0  0  0  0  0  0  0  0  0  0  0  0
    5.2559    0.4936    0.4339 H   0  0  0  0  0  0  0  0  0  0  0  0
    3.7255    1.2644    4.2187 H   0  0  0  0  0  0  0  0  0  0  0  0
    1.5965    1.9683    4.5417 H   0  0  0  0  0  0  0  0  0  0  0  0
   -0.6581    1.6818    5.4268 H   0  0  0  0  0  0  0  0  0  0  0  0
   -2.6322    0.5819    5.2028 H   0  0  0  0  0  0  0  0  0  0  0  0
   -1.5408   -1.2072    2.3685 H   0  0  0  0  0  0  0  0  0  0  0  0
    0.7173   -0.9961    1.4849 H   0  0  0  0  0  0  0  0  0  0  0  0
  1  2  2  0  0  0  0
  2  3  1  0  0  0  0
  2 18  1  0  0  0  0
  3  4  1  0  0  0  0
  3 30  1  0  0  0  0
  4  5  2  0  0  0  0
  4 17  1  0  0  0  0
  5  6  1  0  0  0  0
  5 31  1  0  0  0  0
  6  7  2  0  0  0  0
  6 32  1  0  0  0  0
  7  8  1  0  0  0  0
  7 33  1  0  0  0  0
  8  9  1  0  0  0  0
  8 17  2  0  0  0  0
  9 10  1  0  0  0  0
 10 11  1  0  0  0  0
 10 34  1  0  0  0  0
 10 35  1  0  0  0  0
 11 12  2  0  0  0  0
 11 16  1  0  0  0  0
 12 13  1  0  0  0  0
 12 36  1  0  0  0  0
 13 14  2  0  0  0  0
 13 37  1  0  0  0  0
 14 15  1  0  0  0  0
 14 38  1  0  0  0  0
 15 16  2  0  0  0  0
 15 39  1  0  0  0  0
 17 40  1  0  0  0  0
 18 19  2  0  0  0  0
 18 22  1  0  0  0  0
 19 20  1  0  0  0  0
 19 41  1  0  0  0  0
 20 21  2  0  0  0  0
 21 22  1  0  0  0  0
 21 42  1  0  0  0  0
 22 23  1  0  0  0  0
 23 24  2  0  0  0  0
 23 29  1  0  0  0  0
 24 25  1  0  0  0  0
 24 43  1  0  0  0  0
 25 26  2  0  0  0  0
 25 44  1  0  0  0  0
 26 27  1  0  0  0  0
 26 28  1  0  0  0  0
 27 45  1  0  0  0  0
 28 29  2  0  0  0  0
 28 46  1  0  0  0  0
 29 47  1  0  0  0  0
M  END
$$$$
