
 OpenBabel01122422353D

 50 53  0  0  0  0  0  0  0  0999 V2000
    0.6261   -0.7518    0.0844 C   0  0  0  0  0  0  0  0  0  0  0  0
    1.8027   -1.3800    0.5843 O   0  0  0  0  0  0  0  0  0  0  0  0
    2.7974   -1.6372   -0.3225 C   0  0  0  0  0  0  0  0  0  0  0  0
    2.7133   -1.4344   -1.6969 C   0  0  0  0  0  0  0  0  0  0  0  0
    3.8038   -1.7430   -2.5090 C   0  0  0  0  0  0  0  0  0  0  0  0
    4.9870   -2.2303   -1.9495 C   0  0  0  0  0  0  0  0  0  0  0  0
    5.1116   -2.4402   -0.5664 C   0  0  0  0  0  0  0  0  0  0  0  0
    6.3835   -2.9370    0.0093 C   0  0  0  0  0  0  0  0  0  0  0  0
    6.4315   -3.7646    1.1320 C   0  0  0  0  0  0  0  0  0  0  0  0
    7.6711   -4.1942    1.6163 C   0  0  0  0  0  0  0  0  0  0  0  0
    8.8480   -3.8068    0.9720 C   0  0  0  0  0  0  0  0  0  0  0  0
   10.1611   -4.2106    1.5528 C   0  0  0  0  0  0  0  0  0  0  0  0
   10.1857   -4.8648    2.5860 O   0  0  0  0  0  0  0  0  0  0  0  0
   11.3053   -3.8082    0.8980 N   0  0  0  0  0  0  0  0  0  0  0  0
   12.6208   -4.1181    1.4053 C   0  0  0  0  0  0  0  0  0  0  0  0
   13.6189   -3.0506    1.0342 C   0  0  0  0  0  0  0  0  0  0  0  0
   13.8120   -1.9385    1.8653 C   0  0  0  0  0  0  0  0  0  0  0  0
   14.7387   -0.9472    1.5207 C   0  0  0  0  0  0  0  0  0  0  0  0
   15.4718   -1.0324    0.3301 C   0  0  0  0  0  0  0  0  0  0  0  0
   16.4092    0.0348   -0.0293 C   0  0  0  0  0  0  0  0  0  0  0  0
   17.0649    0.8230    0.8044 N   0  0  0  0  0  0  0  0  0  0  0  0
   17.8132    1.6680    0.0254 C   0  0  0  0  0  0  0  0  0  0  0  0
   17.5962    1.4221   -1.3070 C   0  0  0  0  0  0  0  0  0  0  0  0
   16.7019    0.3893   -1.3286 N   0  0  0  0  0  0  0  0  0  0  0  0
   15.2821   -2.1497   -0.4944 C   0  0  0  0  0  0  0  0  0  0  0  0
   14.3612   -3.1449   -0.1488 C   0  0  0  0  0  0  0  0  0  0  0  0
    8.7027   -2.9817   -0.1288 C   0  0  0  0  0  0  0  0  0  0  0  0
    9.7995   -2.4734   -0.7669 O   0  0  0  0  0  0  0  0  0  0  0  0
    7.5252   -2.5300   -0.6172 N   0  0  0  0  0  0  0  0  0  0  0  0
    3.9859   -2.1416    0.2295 C   0  0  0  0  0  0  0  0  0  0  0  0
   -0.0309   -0.5603    0.9373 H   0  0  0  0  0  0  0  0  0  0  0  0
    0.0924   -1.4123   -0.6062 H   0  0  0  0  0  0  0  0  0  0  0  0
    0.8598    0.2090   -0.3866 H   0  0  0  0  0  0  0  0  0  0  0  0
    1.8114   -1.0622   -2.1730 H   0  0  0  0  0  0  0  0  0  0  0  0
    3.7386   -1.5963   -3.5826 H   0  0  0  0  0  0  0  0  0  0  0  0
    5.8248   -2.4527   -2.6088 H   0  0  0  0  0  0  0  0  0  0  0  0
    5.5256   -4.0863    1.6373 H   0  0  0  0  0  0  0  0  0  0  0  0
    7.7140   -4.8149    2.5083 H   0  0  0  0  0  0  0  0  0  0  0  0
   11.2248   -3.3862   -0.0214 H   0  0  0  0  0  0  0  0  0  0  0  0
   12.9180   -5.0841    0.9832 H   0  0  0  0  0  0  0  0  0  0  0  0
   12.5879   -4.2438    2.4923 H   0  0  0  0  0  0  0  0  0  0  0  0
   13.2468   -1.8392    2.7911 H   0  0  0  0  0  0  0  0  0  0  0  0
   14.8859   -0.0979    2.1869 H   0  0  0  0  0  0  0  0  0  0  0  0
   18.4677    2.4073    0.4678 H   0  0  0  0  0  0  0  0  0  0  0  0
   17.9878    1.8703   -2.2091 H   0  0  0  0  0  0  0  0  0  0  0  0
   16.3010   -0.0356   -2.1518 H   0  0  0  0  0  0  0  0  0  0  0  0
   15.8637   -2.2777   -1.4025 H   0  0  0  0  0  0  0  0  0  0  0  0
   14.2359   -4.0019   -0.8063 H   0  0  0  0  0  0  0  0  0  0  0  0
    9.5836   -1.5255   -0.8124 H   0  0  0  0  0  0  0  0  0  0  0  0
    4.0226   -2.2738    1.3084 H   0  0  0  0  0  0  0  0  0  0  0  0
  1  2  1  0  0  0  0
  1 31  1  0  0  0  0
  1 32  1  0  0  0  0
  1 33  1  0  0  0  0
  2  3  1  0  0  0  0
  3  4  2  0  0  0  0
  3 30  1  0  0  0  0
  4  5  1  0  0  0  0
  4 34  1  0  0  0  0
  5  6  2  0  0  0  0
  5 35  1  0  0  0  0
  6  7  1  0  0  0  0
  6 36  1  0  0  0  0
  7  8  1  0  0  0  0
  7 30  2  0  0  0  0
  8  9  2  0  0  0  0
  8 29  1  0  0  0  0
  9 10  1  0  0  0  0
  9 37  1  0  0  0  0
 10 11  2  0  0  0  0
 10 38  1  0  0  0  0
 11 12  1  0  0  0  0
 11 27  1  0  0  0  0
 12 13  2  0  0  0  0
 12 14  1  0  0  0  0
 14 15  1  0  0  0  0
 14 39  1  0  0  0  0
 15 16  1  0  0  0  0
 15 40  1  0  0  0  0
 15 41  1  0  0  0  0
 16 17  2  0  0  0  0
 16 26  1  0  0  0  0
 17 18  1  0  0  0  0
 17 42  1  0  0  0  0
 18 19  2  0  0  0  0
 18 43  1  0  0  0  0
 19 20  1  0  0  0  0
 19 25  1  0  0  0  0
 20 21  2  0  0  0  0
 20 24  1  0  0  0  0
 21 22  1  0  0  0  0
 22 23  2  0  0  0  0
 22 44  1  0  0  0  0
 23 24  1  0  0  0  0
 23 45  1  0  0  0  0
 24 46  1  0  0  0  0
 25 26  2  0  0  0  0
 25 47  1  0  0  0  0
 26 48  1  0  0  0  0
 27 28  1  0  0  0  0
 27 29  2  0  0  0  0
 28 49  1  0  0  0  0
 30 50  1  0  0  0  0
M  END
$$$$
