
 OpenBabel01122422383D

 51 54  0  0  0  0  0  0  0  0999 V2000
   -1.2791    2.6365    0.6025 C   0  0  0  0  0  0  0  0  0  0  0  0
   -1.0585    1.5473   -0.3187 N   0  0  0  0  0  0  0  0  0  0  0  0
   -1.8846    0.4722   -0.4869 C   0  0  0  0  0  0  0  0  0  0  0  0
   -1.3001   -0.2785   -1.4767 C   0  0  0  0  0  0  0  0  0  0  0  0
   -0.1500    0.3149   -1.9171 N   0  0  0  0  0  0  0  0  0  0  0  0
   -0.0141    1.4204   -1.2069 C   0  0  0  0  0  0  0  0  0  0  0  0
    1.0494    2.4456   -1.4096 C   0  0  0  0  0  0  0  0  0  0  0  0
    1.7167    2.6643   -0.1629 O   0  0  0  0  0  0  0  0  0  0  0  0
    2.4601    3.8133   -0.1110 C   0  0  0  0  0  0  0  0  0  0  0  0
    2.7159    4.3116    1.1657 C   0  0  0  0  0  0  0  0  0  0  0  0
    3.4099    5.5151    1.3252 C   0  0  0  0  0  0  0  0  0  0  0  0
    3.8703    6.2307    0.2099 C   0  0  0  0  0  0  0  0  0  0  0  0
    4.5856    7.4838    0.3994 C   0  0  0  0  0  0  0  0  0  0  0  0
    4.9595    8.0793    1.5099 N   0  0  0  0  0  0  0  0  0  0  0  0
    5.6291    9.1786    1.0418 C   0  0  0  0  0  0  0  0  0  0  0  0
    6.2789   10.1561    1.9345 C   0  0  0  0  0  0  0  0  0  0  0  0
    7.6972    9.7403    2.2550 C   0  0  0  0  0  0  0  0  0  0  0  0
    8.0503    9.4753    3.4019 O   0  0  0  0  0  0  0  0  0  0  0  0
    8.5764    9.7569    1.1919 N   0  0  0  0  0  0  0  0  0  0  0  0
    9.9478    9.3384    1.3698 C   0  0  0  0  0  0  0  0  0  0  0  0
   10.8468   10.0027    0.3616 C   0  0  0  0  0  0  0  0  0  0  0  0
   11.2125    9.3497   -0.8270 C   0  0  0  0  0  0  0  0  0  0  0  0
   12.0420    9.9848   -1.7562 C   0  0  0  0  0  0  0  0  0  0  0  0
   12.5000   11.2738   -1.5032 C   0  0  0  0  0  0  0  0  0  0  0  0
   13.2939   11.8769   -2.3986 F   0  0  0  0  0  0  0  0  0  0  0  0
   12.1364   11.9312   -0.3356 C   0  0  0  0  0  0  0  0  0  0  0  0
   12.5762   13.1738   -0.0941 F   0  0  0  0  0  0  0  0  0  0  0  0
   11.3119   11.3070    0.5953 C   0  0  0  0  0  0  0  0  0  0  0  0
    5.6614    9.2967   -0.2929 N   0  0  0  0  0  0  0  0  0  0  0  0
    4.9594    8.1689   -0.7248 O   0  0  0  0  0  0  0  0  0  0  0  0
    3.6432    5.6988   -1.0658 C   0  0  0  0  0  0  0  0  0  0  0  0
    2.9558    4.4930   -1.2243 C   0  0  0  0  0  0  0  0  0  0  0  0
   -2.2227    2.4784    1.1316 H   0  0  0  0  0  0  0  0  0  0  0  0
   -1.3287    3.5709    0.0382 H   0  0  0  0  0  0  0  0  0  0  0  0
   -0.4588    2.6591    1.3231 H   0  0  0  0  0  0  0  0  0  0  0  0
   -2.7899    0.3329    0.0860 H   0  0  0  0  0  0  0  0  0  0  0  0
   -1.6501   -1.2095   -1.9022 H   0  0  0  0  0  0  0  0  0  0  0  0
    0.5767    3.3670   -1.7741 H   0  0  0  0  0  0  0  0  0  0  0  0
    1.7696    2.0787   -2.1504 H   0  0  0  0  0  0  0  0  0  0  0  0
    2.3650    3.7719    2.0422 H   0  0  0  0  0  0  0  0  0  0  0  0
    3.5872    5.8954    2.3306 H   0  0  0  0  0  0  0  0  0  0  0  0
    5.7186   10.2277    2.8737 H   0  0  0  0  0  0  0  0  0  0  0  0
    6.2933   11.1575    1.4905 H   0  0  0  0  0  0  0  0  0  0  0  0
    8.2004    9.7665    0.2492 H   0  0  0  0  0  0  0  0  0  0  0  0
    9.9837    8.2476    1.2695 H   0  0  0  0  0  0  0  0  0  0  0  0
   10.2893    9.5755    2.3844 H   0  0  0  0  0  0  0  0  0  0  0  0
   10.8592    8.3409   -1.0335 H   0  0  0  0  0  0  0  0  0  0  0  0
   12.3349    9.4836   -2.6737 H   0  0  0  0  0  0  0  0  0  0  0  0
   11.0391   11.8415    1.5017 H   0  0  0  0  0  0  0  0  0  0  0  0
    4.0004    6.2110   -1.9572 H   0  0  0  0  0  0  0  0  0  0  0  0
    2.8288    4.1102   -2.2324 H   0  0  0  0  0  0  0  0  0  0  0  0
  1  2  1  0  0  0  0
  1 33  1  0  0  0  0
  1 34  1  0  0  0  0
  1 35  1  0  0  0  0
  2  3  1  0  0  0  0
  2  6  1  0  0  0  0
  3  4  2  0  0  0  0
  3 36  1  0  0  0  0
  4  5  1  0  0  0  0
  4 37  1  0  0  0  0
  5  6  2  0  0  0  0
  6  7  1  0  0  0  0
  7  8  1  0  0  0  0
  7 38  1  0  0  0  0
  7 39  1  0  0  0  0
  8  9  1  0  0  0  0
  9 10  2  0  0  0  0
  9 32  1  0  0  0  0
 10 11  1  0  0  0  0
 10 40  1  0  0  0  0
 11 12  2  0  0  0  0
 11 41  1  0  0  0  0
 12 13  1  0  0  0  0
 12 31  1  0  0  0  0
 13 14  2  0  0  0  0
 13 30  1  0  0  0  0
 14 15  1  0  0  0  0
 15 16  1  0  0  0  0
 15 29  2  0  0  0  0
 16 17  1  0  0  0  0
 16 42  1  0  0  0  0
 16 43  1  0  0  0  0
 17 18  2  0  0  0  0
 17 19  1  0  0  0  0
 19 20  1  0  0  0  0
 19 44  1  0  0  0  0
 20 21  1  0  0  0  0
 20 45  1  0  0  0  0
 20 46  1  0  0  0  0
 21 22  2  0  0  0  0
 21 28  1  0  0  0  0
 22 23  1  0  0  0  0
 22 47  1  0  0  0  0
 23 24  2  0  0  0  0
 23 48  1  0  0  0  0
 24 25  1  0  0  0  0
 24 26  1  0  0  0  0
 26 27  1  0  0  0  0
 26 28  2  0  0  0  0
 28 49  1  0  0  0  0
 29 30  1  0  0  0  0
 31 32  2  0  0  0  0
 31 50  1  0  0  0  0
 32 51  1  0  0  0  0
M  END
$$$$
