
 OpenBabel01122422383D

 45 48  0  0  0  0  0  0  0  0999 V2000
    0.9302   -0.1357    0.0701 O   0  0  0  0  0  0  0  0  0  0  0  0
    2.1088    0.1511   -0.1351 C   0  0  0  0  0  0  0  0  0  0  0  0
    2.6791    1.3674    0.1890 N   0  0  0  0  0  0  0  0  0  0  0  0
    1.9956    2.4131    0.8032 C   0  0  0  0  0  0  0  0  0  0  0  0
    0.6729    2.4857    1.1828 C   0  0  0  0  0  0  0  0  0  0  0  0
    0.5092    3.6868    1.8186 N   0  0  0  0  0  0  0  0  0  0  0  0
   -0.6949    4.1722    2.4822 C   0  0  0  0  0  0  0  0  0  0  0  0
   -0.7501    3.7274    3.9236 C   0  0  0  0  0  0  0  0  0  0  0  0
    0.2580    4.0789    4.8228 C   0  0  0  0  0  0  0  0  0  0  0  0
    0.1855    3.6265    6.1372 C   0  0  0  0  0  0  0  0  0  0  0  0
   -0.8980    2.8542    6.5318 C   0  0  0  0  0  0  0  0  0  0  0  0
   -1.8743    2.5729    5.5920 C   0  0  0  0  0  0  0  0  0  0  0  0
   -1.8276    2.9915    4.3061 N   0  0  0  0  0  0  0  0  0  0  0  0
    1.6268    4.4516    1.7933 N   0  0  0  0  0  0  0  0  0  0  0  0
    2.5273    3.6610    1.1914 C   0  0  0  0  0  0  0  0  0  0  0  0
    2.9629   -0.8877   -0.8036 C   0  0  0  0  0  0  0  0  0  0  0  0
    2.2771   -2.0568   -1.1914 C   0  0  0  0  0  0  0  0  0  0  0  0
    2.9521   -3.0687   -1.8457 C   0  0  0  0  0  0  0  0  0  0  0  0
    4.2459   -2.9827   -2.1881 N   0  0  0  0  0  0  0  0  0  0  0  0
    4.8946   -1.8557   -1.8178 C   0  0  0  0  0  0  0  0  0  0  0  0
    4.3348   -0.8115   -1.0693 C   0  0  0  0  0  0  0  0  0  0  0  0
    5.1065    0.2413   -0.6136 O   0  0  0  0  0  0  0  0  0  0  0  0
    6.4221   -0.0449   -0.2760 C   0  0  0  0  0  0  0  0  0  0  0  0
    7.4180    0.8316   -0.7177 C   0  0  0  0  0  0  0  0  0  0  0  0
    8.7657    0.5278   -0.4828 C   0  0  0  0  0  0  0  0  0  0  0  0
    9.1035   -0.6442    0.1890 C   0  0  0  0  0  0  0  0  0  0  0  0
   10.3935   -0.9528    0.3739 F   0  0  0  0  0  0  0  0  0  0  0  0
    8.1196   -1.4977    0.6694 C   0  0  0  0  0  0  0  0  0  0  0  0
    6.7749   -1.1828    0.4662 C   0  0  0  0  0  0  0  0  0  0  0  0
    3.6617    1.5185   -0.0054 H   0  0  0  0  0  0  0  0  0  0  0  0
   -0.1495    1.7875    1.0992 H   0  0  0  0  0  0  0  0  0  0  0  0
   -1.5557    3.7897    1.9217 H   0  0  0  0  0  0  0  0  0  0  0  0
   -0.7073    5.2661    2.4172 H   0  0  0  0  0  0  0  0  0  0  0  0
    1.1027    4.6832    4.5027 H   0  0  0  0  0  0  0  0  0  0  0  0
    0.9744    3.8713    6.8429 H   0  0  0  0  0  0  0  0  0  0  0  0
   -0.9799    2.4809    7.5461 H   0  0  0  0  0  0  0  0  0  0  0  0
   -2.7469    1.9817    5.8549 H   0  0  0  0  0  0  0  0  0  0  0  0
    3.5382    4.0300    1.0768 H   0  0  0  0  0  0  0  0  0  0  0  0
    1.2180   -2.1845   -0.9825 H   0  0  0  0  0  0  0  0  0  0  0  0
    2.4496   -3.9906   -2.1223 H   0  0  0  0  0  0  0  0  0  0  0  0
    5.9361   -1.8399   -2.1317 H   0  0  0  0  0  0  0  0  0  0  0  0
    7.1622    1.7324   -1.2669 H   0  0  0  0  0  0  0  0  0  0  0  0
    9.5558    1.1862   -0.8320 H   0  0  0  0  0  0  0  0  0  0  0  0
    8.4023   -2.4124    1.1816 H   0  0  0  0  0  0  0  0  0  0  0  0
    6.0147   -1.8620    0.8453 H   0  0  0  0  0  0  0  0  0  0  0  0
  1  2  2  0  0  0  0
  2  3  1  0  0  0  0
  2 16  1  0  0  0  0
  3  4  1  0  0  0  0
  3 30  1  0  0  0  0
  4  5  2  0  0  0  0
  4 15  1  0  0  0  0
  5  6  1  0  0  0  0
  5 31  1  0  0  0  0
  6  7  1  0  0  0  0
  6 14  1  0  0  0  0
  7  8  1  0  0  0  0
  7 32  1  0  0  0  0
  7 33  1  0  0  0  0
  8  9  2  0  0  0  0
  8 13  1  0  0  0  0
  9 10  1  0  0  0  0
  9 34  1  0  0  0  0
 10 11  2  0  0  0  0
 10 35  1  0  0  0  0
 11 12  1  0  0  0  0
 11 36  1  0  0  0  0
 12 13  2  0  0  0  0
 12 37  1  0  0  0  0
 14 15  2  0  0  0  0
 15 38  1  0  0  0  0
 16 17  2  0  0  0  0
 16 21  1  0  0  0  0
 17 18  1  0  0  0  0
 17 39  1  0  0  0  0
 18 19  2  0  0  0  0
 18 40  1  0  0  0  0
 19 20  1  0  0  0  0
 20 21  2  0  0  0  0
 20 41  1  0  0  0  0
 21 22  1  0  0  0  0
 22 23  1  0  0  0  0
 23 24  2  0  0  0  0
 23 29  1  0  0  0  0
 24 25  1  0  0  0  0
 24 42  1  0  0  0  0
 25 26  2  0  0  0  0
 25 43  1  0  0  0  0
 26 27  1  0  0  0  0
 26 28  1  0  0  0  0
 28 29  2  0  0  0  0
 28 44  1  0  0  0  0
 29 45  1  0  0  0  0
M  END
$$$$
