
 OpenBabel01122422383D

 52 55  0  0  0  0  0  0  0  0999 V2000
    2.0049    0.9834   -0.1413 O   0  0  0  0  0  0  0  0  0  0  0  0
    2.1860   -0.2139   -0.3128 C   0  0  0  0  0  0  0  0  0  0  0  0
    1.6574   -0.9253   -1.3799 N   0  0  0  0  0  0  0  0  0  0  0  0
    0.9772   -0.2939   -2.4858 C   0  0  0  0  0  0  0  0  0  0  0  0
   -0.4136   -0.8493   -2.7059 C   0  0  0  0  0  0  0  0  0  0  0  0
   -1.5116   -0.2715   -2.0528 C   0  0  0  0  0  0  0  0  0  0  0  0
   -2.8066   -0.7432   -2.2883 C   0  0  0  0  0  0  0  0  0  0  0  0
   -3.0041   -1.7994   -3.1648 C   0  0  0  0  0  0  0  0  0  0  0  0
   -4.2457   -2.2459   -3.3979 F   0  0  0  0  0  0  0  0  0  0  0  0
   -1.9278   -2.4000   -3.8105 C   0  0  0  0  0  0  0  0  0  0  0  0
   -0.6308   -1.9282   -3.5780 C   0  0  0  0  0  0  0  0  0  0  0  0
    2.9290   -1.0353    0.6858 C   0  0  0  0  0  0  0  0  0  0  0  0
    2.5067   -2.3437    0.7691 N   0  0  0  0  0  0  0  0  0  0  0  0
    3.0320   -3.0758    1.7793 C   0  0  0  0  0  0  0  0  0  0  0  0
    3.9691   -2.5649    2.6534 C   0  0  0  0  0  0  0  0  0  0  0  0
    4.4253   -1.3011    2.5509 N   0  0  0  0  0  0  0  0  0  0  0  0
    3.8781   -0.5190    1.5622 C   0  0  0  0  0  0  0  0  0  0  0  0
    4.4314    0.8746    1.5022 C   0  0  0  0  0  0  0  0  0  0  0  0
    4.7695    1.3342    0.4148 O   0  0  0  0  0  0  0  0  0  0  0  0
    4.6263    1.5613    2.7212 N   0  0  0  0  0  0  0  0  0  0  0  0
    5.2115    2.9025    2.7021 C   0  0  0  0  0  0  0  0  0  0  0  0
    5.8168    3.3328    4.0466 C   0  0  0  0  0  0  0  0  0  0  0  0
    4.8329    3.1387    5.1711 C   0  0  0  0  0  0  0  0  0  0  0  0
    4.8477    3.9323    6.3222 C   0  0  0  0  0  0  0  0  0  0  0  0
    3.9394    3.6854    7.3582 C   0  0  0  0  0  0  0  0  0  0  0  0
    3.0050    2.6544    7.2551 C   0  0  0  0  0  0  0  0  0  0  0  0
    2.1551    2.5031    8.3147 O   0  0  0  0  0  0  0  0  0  0  0  0
    0.8995    1.9221    7.9932 C   0  0  0  0  0  0  0  0  0  0  0  0
    1.0255    0.5706    7.9926 F   0  0  0  0  0  0  0  0  0  0  0  0
    0.0385    2.2311    8.9950 F   0  0  0  0  0  0  0  0  0  0  0  0
    3.0228    1.8332    6.1323 C   0  0  0  0  0  0  0  0  0  0  0  0
    3.9266    2.0759    5.0867 C   0  0  0  0  0  0  0  0  0  0  0  0
    3.9856    1.0989    3.9478 C   0  0  0  0  0  0  0  0  0  0  0  0
    1.7987   -1.9297   -1.3898 H   0  0  0  0  0  0  0  0  0  0  0  0
    1.5870   -0.4607   -3.3812 H   0  0  0  0  0  0  0  0  0  0  0  0
    0.9256    0.7921   -2.3429 H   0  0  0  0  0  0  0  0  0  0  0  0
   -1.3628    0.5643   -1.3688 H   0  0  0  0  0  0  0  0  0  0  0  0
   -3.6613   -0.2837   -1.7990 H   0  0  0  0  0  0  0  0  0  0  0  0
   -2.1065   -3.2215   -4.4958 H   0  0  0  0  0  0  0  0  0  0  0  0
    0.2021   -2.3962   -4.0984 H   0  0  0  0  0  0  0  0  0  0  0  0
    2.6646   -4.0910    1.8818 H   0  0  0  0  0  0  0  0  0  0  0  0
    4.3769   -3.1502    3.4706 H   0  0  0  0  0  0  0  0  0  0  0  0
    4.4088    3.5922    2.4133 H   0  0  0  0  0  0  0  0  0  0  0  0
    5.9790    2.9534    1.9209 H   0  0  0  0  0  0  0  0  0  0  0  0
    6.1194    4.3849    3.9831 H   0  0  0  0  0  0  0  0  0  0  0  0
    6.7128    2.7390    4.2657 H   0  0  0  0  0  0  0  0  0  0  0  0
    5.5677    4.7405    6.4284 H   0  0  0  0  0  0  0  0  0  0  0  0
    3.9617    4.3039    8.2526 H   0  0  0  0  0  0  0  0  0  0  0  0
    0.4751    2.2696    7.0438 H   0  0  0  0  0  0  0  0  0  0  0  0
    2.3693    0.9672    6.0574 H   0  0  0  0  0  0  0  0  0  0  0  0
    2.9659    0.7844    3.6957 H   0  0  0  0  0  0  0  0  0  0  0  0
    4.5520    0.2387    4.3184 H   0  0  0  0  0  0  0  0  0  0  0  0
  1  2  2  0  0  0  0
  2  3  1  0  0  0  0
  2 12  1  0  0  0  0
  3  4  1  0  0  0  0
  3 34  1  0  0  0  0
  4  5  1  0  0  0  0
  4 35  1  0  0  0  0
  4 36  1  0  0  0  0
  5  6  2  0  0  0  0
  5 11  1  0  0  0  0
  6  7  1  0  0  0  0
  6 37  1  0  0  0  0
  7  8  2  0  0  0  0
  7 38  1  0  0  0  0
  8  9  1  0  0  0  0
  8 10  1  0  0  0  0
 10 11  2  0  0  0  0
 10 39  1  0  0  0  0
 11 40  1  0  0  0  0
 12 13  2  0  0  0  0
 12 17  1  0  0  0  0
 13 14  1  0  0  0  0
 14 15  2  0  0  0  0
 14 41  1  0  0  0  0
 15 16  1  0  0  0  0
 15 42  1  0  0  0  0
 16 17  2  0  0  0  0
 17 18  1  0  0  0  0
 18 19  2  0  0  0  0
 18 20  1  0  0  0  0
 20 21  1  0  0  0  0
 20 33  1  0  0  0  0
 21 22  1  0  0  0  0
 21 43  1  0  0  0  0
 21 44  1  0  0  0  0
 22 23  1  0  0  0  0
 22 45  1  0  0  0  0
 22 46  1  0  0  0  0
 23 24  2  0  0  0  0
 23 32  1  0  0  0  0
 24 25  1  0  0  0  0
 24 47  1  0  0  0  0
 25 26  2  0  0  0  0
 25 48  1  0  0  0  0
 26 27  1  0  0  0  0
 26 31  1  0  0  0  0
 27 28  1  0  0  0  0
 28 29  1  0  0  0  0
 28 30  1  0  0  0  0
 28 49  1  0  0  0  0
 31 32  2  0  0  0  0
 31 50  1  0  0  0  0
 32 33  1  0  0  0  0
 33 51  1  0  0  0  0
 33 52  1  0  0  0  0
M  END
$$$$
