
 OpenBabel01122422383D

 48 51  0  0  0  0  0  0  0  0999 V2000
    4.9728    0.8755    2.5997 C   0  0  0  0  0  0  0  0  0  0  0  0
    4.4507    0.4001    1.3215 N   0  0  0  0  0  0  0  0  0  0  0  0
    3.1352    0.8137    0.8171 C   0  0  0  0  0  0  0  0  0  0  0  0
    2.2852    1.6110    1.7778 C   0  0  0  0  0  0  0  0  0  0  0  0
    1.3887    0.9725    2.6382 C   0  0  0  0  0  0  0  0  0  0  0  0
    0.6227    1.7202    3.5268 C   0  0  0  0  0  0  0  0  0  0  0  0
    0.7702    3.1086    3.5813 C   0  0  0  0  0  0  0  0  0  0  0  0
    1.6945    3.7802    2.7617 C   0  0  0  0  0  0  0  0  0  0  0  0
    1.9331    5.2299    2.8898 C   0  0  0  0  0  0  0  0  0  0  0  0
    2.2587    6.0385    1.7928 C   0  0  0  0  0  0  0  0  0  0  0  0
    2.5225    7.3965    1.9654 C   0  0  0  0  0  0  0  0  0  0  0  0
    2.4447    7.9310    3.2445 C   0  0  0  0  0  0  0  0  0  0  0  0
    2.7143    9.3847    3.4606 C   0  0  0  0  0  0  0  0  0  0  0  0
    2.9717   10.1501    2.4427 N   0  0  0  0  0  0  0  0  0  0  0  0
    3.2206   11.4796    2.6561 C   0  0  0  0  0  0  0  0  0  0  0  0
    3.4622   12.2636    1.7430 O   0  0  0  0  0  0  0  0  0  0  0  0
    3.1983   11.9405    3.9485 N   0  0  0  0  0  0  0  0  0  0  0  0
    2.9288   11.1584    5.0302 C   0  0  0  0  0  0  0  0  0  0  0  0
    2.6692    9.8610    4.8681 C   0  0  0  0  0  0  0  0  0  0  0  0
    2.1339    7.1927    4.3364 N   0  0  0  0  0  0  0  0  0  0  0  0
    1.8955    5.8749    4.1294 C   0  0  0  0  0  0  0  0  0  0  0  0
    2.4263    3.0074    1.8448 C   0  0  0  0  0  0  0  0  0  0  0  0
    5.2142   -0.4948    0.5612 C   0  0  0  0  0  0  0  0  0  0  0  0
    6.4105   -1.0549    1.0444 C   0  0  0  0  0  0  0  0  0  0  0  0
    7.1535   -1.9860    0.3050 C   0  0  0  0  0  0  0  0  0  0  0  0
    6.7238   -2.3807   -0.9538 C   0  0  0  0  0  0  0  0  0  0  0  0
    5.5620   -1.8322   -1.4761 C   0  0  0  0  0  0  0  0  0  0  0  0
    4.8266   -0.9022   -0.7298 C   0  0  0  0  0  0  0  0  0  0  0  0
    4.3252    1.5822    3.1212 H   0  0  0  0  0  0  0  0  0  0  0  0
    5.9269    1.3961    2.4559 H   0  0  0  0  0  0  0  0  0  0  0  0
    5.1182    0.0390    3.2925 H   0  0  0  0  0  0  0  0  0  0  0  0
    2.5496   -0.0726    0.5339 H   0  0  0  0  0  0  0  0  0  0  0  0
    3.2619    1.4090   -0.0962 H   0  0  0  0  0  0  0  0  0  0  0  0
    1.2904   -0.1119    2.6232 H   0  0  0  0  0  0  0  0  0  0  0  0
   -0.0807    1.2231    4.1887 H   0  0  0  0  0  0  0  0  0  0  0  0
    0.1507    3.6591    4.2863 H   0  0  0  0  0  0  0  0  0  0  0  0
    2.3133    5.6252    0.7884 H   0  0  0  0  0  0  0  0  0  0  0  0
    2.7855    8.0155    1.1130 H   0  0  0  0  0  0  0  0  0  0  0  0
    3.3935   12.9286    4.0505 H   0  0  0  0  0  0  0  0  0  0  0  0
    2.9337   11.6380    6.0031 H   0  0  0  0  0  0  0  0  0  0  0  0
    2.4461    9.1926    5.6880 H   0  0  0  0  0  0  0  0  0  0  0  0
    1.6840    5.3226    5.0425 H   0  0  0  0  0  0  0  0  0  0  0  0
    3.1645    3.4782    1.1969 H   0  0  0  0  0  0  0  0  0  0  0  0
    6.7966   -0.7925    2.0246 H   0  0  0  0  0  0  0  0  0  0  0  0
    8.0636   -2.4034    0.7264 H   0  0  0  0  0  0  0  0  0  0  0  0
    7.2922   -3.1084   -1.5249 H   0  0  0  0  0  0  0  0  0  0  0  0
    5.2162   -2.1238   -2.4639 H   0  0  0  0  0  0  0  0  0  0  0  0
    3.9331   -0.5050   -1.2015 H   0  0  0  0  0  0  0  0  0  0  0  0
  1  2  1  0  0  0  0
  1 29  1  0  0  0  0
  1 30  1  0  0  0  0
  1 31  1  0  0  0  0
  2  3  1  0  0  0  0
  2 23  1  0  0  0  0
  3  4  1  0  0  0  0
  3 32  1  0  0  0  0
  3 33  1  0  0  0  0
  4  5  2  0  0  0  0
  4 22  1  0  0  0  0
  5  6  1  0  0  0  0
  5 34  1  0  0  0  0
  6  7  2  0  0  0  0
  6 35  1  0  0  0  0
  7  8  1  0  0  0  0
  7 36  1  0  0  0  0
  8  9  1  0  0  0  0
  8 22  2  0  0  0  0
  9 10  2  0  0  0  0
  9 21  1  0  0  0  0
 10 11  1  0  0  0  0
 10 37  1  0  0  0  0
 11 12  2  0  0  0  0
 11 38  1  0  0  0  0
 12 13  1  0  0  0  0
 12 20  1  0  0  0  0
 13 14  2  0  0  0  0
 13 19  1  0  0  0  0
 14 15  1  0  0  0  0
 15 16  2  0  0  0  0
 15 17  1  0  0  0  0
 17 18  1  0  0  0  0
 17 39  1  0  0  0  0
 18 19  2  0  0  0  0
 18 40  1  0  0  0  0
 19 41  1  0  0  0  0
 20 21  2  0  0  0  0
 21 42  1  0  0  0  0
 22 43  1  0  0  0  0
 23 24  2  0  0  0  0
 23 28  1  0  0  0  0
 24 25  1  0  0  0  0
 24 44  1  0  0  0  0
 25 26  2  0  0  0  0
 25 45  1  0  0  0  0
 26 27  1  0  0  0  0
 26 46  1  0  0  0  0
 27 28  2  0  0  0  0
 27 47  1  0  0  0  0
 28 48  1  0  0  0  0
M  END
$$$$
