
 OpenBabel01122422383D

 50 53  0  0  0  0  0  0  0  0999 V2000
    4.9785   -0.4332   -2.8957 C   0  0  0  0  0  0  0  0  0  0  0  0
    4.4960   -0.3098   -1.5240 N   0  0  0  0  0  0  0  0  0  0  0  0
    3.0768   -0.0665   -1.2158 C   0  0  0  0  0  0  0  0  0  0  0  0
    2.1246   -0.2594   -2.3356 C   0  0  0  0  0  0  0  0  0  0  0  0
    1.5592   -1.4122   -2.8346 C   0  0  0  0  0  0  0  0  0  0  0  0
    0.8185   -0.9995   -3.9225 N   0  0  0  0  0  0  0  0  0  0  0  0
    0.1096   -1.8160   -4.8384 C   0  0  0  0  0  0  0  0  0  0  0  0
   -0.5262   -2.9556   -4.2923 C   0  0  0  0  0  0  0  0  0  0  0  0
   -1.3333   -3.7682   -5.0802 C   0  0  0  0  0  0  0  0  0  0  0  0
   -1.5029   -3.4632   -6.4204 C   0  0  0  0  0  0  0  0  0  0  0  0
   -0.8335   -2.3675   -6.9794 C   0  0  0  0  0  0  0  0  0  0  0  0
    0.0072   -1.5118   -6.2240 C   0  0  0  0  0  0  0  0  0  0  0  0
    0.7875   -0.4572   -6.9542 C   0  0  0  0  0  0  0  0  0  0  0  0
    0.2680    0.1957   -8.0911 C   0  0  0  0  0  0  0  0  0  0  0  0
    0.9970    1.1714   -8.7860 C   0  0  0  0  0  0  0  0  0  0  0  0
    2.2538    1.5570   -8.3365 C   0  0  0  0  0  0  0  0  0  0  0  0
    2.8028    0.9264   -7.2297 C   0  0  0  0  0  0  0  0  0  0  0  0
    2.0984   -0.0970   -6.5851 C   0  0  0  0  0  0  0  0  0  0  0  0
    0.8358    0.3508   -3.9869 N   0  0  0  0  0  0  0  0  0  0  0  0
    1.6477    0.8083   -3.0436 N   0  0  0  0  0  0  0  0  0  0  0  0
    5.4867   -0.2524   -0.5404 C   0  0  0  0  0  0  0  0  0  0  0  0
    6.6803   -0.3900   -0.8243 O   0  0  0  0  0  0  0  0  0  0  0  0
    5.0805    0.0039    0.9010 C   0  0  0  0  0  0  0  0  0  0  0  0
    4.6637   -1.2433    1.6267 C   0  0  0  0  0  0  0  0  0  0  0  0
    3.3795   -1.3000    2.0773 N   0  0  0  0  0  0  0  0  0  0  0  0
    3.0076   -2.4091    2.7585 C   0  0  0  0  0  0  0  0  0  0  0  0
    3.8496   -3.4809    3.0111 C   0  0  0  0  0  0  0  0  0  0  0  0
    5.1555   -3.4130    2.5397 C   0  0  0  0  0  0  0  0  0  0  0  0
    5.5678   -2.2795    1.8521 C   0  0  0  0  0  0  0  0  0  0  0  0
    6.8316   -2.2019    1.4241 F   0  0  0  0  0  0  0  0  0  0  0  0
    4.1918   -0.3710   -3.6462 H   0  0  0  0  0  0  0  0  0  0  0  0
    5.4840   -1.4004   -2.9936 H   0  0  0  0  0  0  0  0  0  0  0  0
    5.7116    0.3560   -3.0950 H   0  0  0  0  0  0  0  0  0  0  0  0
    2.9898    0.9568   -0.8353 H   0  0  0  0  0  0  0  0  0  0  0  0
    2.7924   -0.7454   -0.4081 H   0  0  0  0  0  0  0  0  0  0  0  0
    1.6885   -2.4518   -2.5772 H   0  0  0  0  0  0  0  0  0  0  0  0
   -0.4501   -3.1932   -3.2328 H   0  0  0  0  0  0  0  0  0  0  0  0
   -1.8417   -4.6249   -4.6444 H   0  0  0  0  0  0  0  0  0  0  0  0
   -2.1429   -4.0829   -7.0435 H   0  0  0  0  0  0  0  0  0  0  0  0
   -0.9622   -2.2128   -8.0496 H   0  0  0  0  0  0  0  0  0  0  0  0
   -0.7267   -0.0398   -8.4626 H   0  0  0  0  0  0  0  0  0  0  0  0
    0.5719    1.6392   -9.6699 H   0  0  0  0  0  0  0  0  0  0  0  0
    2.8040    2.3432   -8.8454 H   0  0  0  0  0  0  0  0  0  0  0  0
    3.7775    1.2274   -6.8548 H   0  0  0  0  0  0  0  0  0  0  0  0
    2.6000   -0.5861   -5.7559 H   0  0  0  0  0  0  0  0  0  0  0  0
    4.2895    0.7590    0.9468 H   0  0  0  0  0  0  0  0  0  0  0  0
    5.9345    0.4522    1.4240 H   0  0  0  0  0  0  0  0  0  0  0  0
    1.9801   -2.4097    3.1150 H   0  0  0  0  0  0  0  0  0  0  0  0
    3.4970   -4.3447    3.5624 H   0  0  0  0  0  0  0  0  0  0  0  0
    5.8563   -4.2234    2.7134 H   0  0  0  0  0  0  0  0  0  0  0  0
  1  2  1  0  0  0  0
  1 31  1  0  0  0  0
  1 32  1  0  0  0  0
  1 33  1  0  0  0  0
  2  3  1  0  0  0  0
  2 21  1  0  0  0  0
  3  4  1  0  0  0  0
  3 34  1  0  0  0  0
  3 35  1  0  0  0  0
  4  5  2  0  0  0  0
  4 20  1  0  0  0  0
  5  6  1  0  0  0  0
  5 36  1  0  0  0  0
  6  7  1  0  0  0  0
  6 19  1  0  0  0  0
  7  8  2  0  0  0  0
  7 12  1  0  0  0  0
  8  9  1  0  0  0  0
  8 37  1  0  0  0  0
  9 10  2  0  0  0  0
  9 38  1  0  0  0  0
 10 11  1  0  0  0  0
 10 39  1  0  0  0  0
 11 12  2  0  0  0  0
 11 40  1  0  0  0  0
 12 13  1  0  0  0  0
 13 14  2  0  0  0  0
 13 18  1  0  0  0  0
 14 15  1  0  0  0  0
 14 41  1  0  0  0  0
 15 16  2  0  0  0  0
 15 42  1  0  0  0  0
 16 17  1  0  0  0  0
 16 43  1  0  0  0  0
 17 18  2  0  0  0  0
 17 44  1  0  0  0  0
 18 45  1  0  0  0  0
 19 20  2  0  0  0  0
 21 22  2  0  0  0  0
 21 23  1  0  0  0  0
 23 24  1  0  0  0  0
 23 46  1  0  0  0  0
 23 47  1  0  0  0  0
 24 25  2  0  0  0  0
 24 29  1  0  0  0  0
 25 26  1  0  0  0  0
 26 27  2  0  0  0  0
 26 48  1  0  0  0  0
 27 28  1  0  0  0  0
 27 49  1  0  0  0  0
 28 29  2  0  0  0  0
 28 50  1  0  0  0  0
 29 30  1  0  0  0  0
M  END
$$$$
