
 OpenBabel01122422383D

 40 43  0  0  0  0  0  0  0  0999 V2000
    0.9942   -0.1168   -0.2090 O   0  0  0  0  0  0  0  0  0  0  0  0
    2.2157   -0.1587   -0.0688 C   0  0  0  0  0  0  0  0  0  0  0  0
    2.9247   -1.0963    0.6466 N   0  0  0  0  0  0  0  0  0  0  0  0
    2.3079   -2.1403    1.2798 C   0  0  0  0  0  0  0  0  0  0  0  0
    1.0536   -2.5259    1.0758 N   0  0  0  0  0  0  0  0  0  0  0  0
    0.8521   -3.4549    2.0187 N   0  0  0  0  0  0  0  0  0  0  0  0
   -0.4308   -4.0307    2.1987 C   0  0  0  0  0  0  0  0  0  0  0  0
   -0.6870   -4.9381    3.2360 C   0  0  0  0  0  0  0  0  0  0  0  0
   -1.9747   -5.4659    3.3913 C   0  0  0  0  0  0  0  0  0  0  0  0
   -2.9905   -5.0989    2.5122 C   0  0  0  0  0  0  0  0  0  0  0  0
   -4.2157   -5.6163    2.6718 F   0  0  0  0  0  0  0  0  0  0  0  0
   -2.7382   -4.2041    1.4813 C   0  0  0  0  0  0  0  0  0  0  0  0
   -3.7162   -3.8572    0.6338 F   0  0  0  0  0  0  0  0  0  0  0  0
   -1.4686   -3.6614    1.3208 C   0  0  0  0  0  0  0  0  0  0  0  0
    2.0283   -3.6601    2.6963 C   0  0  0  0  0  0  0  0  0  0  0  0
    2.9711   -2.8669    2.2256 N   0  0  0  0  0  0  0  0  0  0  0  0
    3.0109    0.9341   -0.6939 C   0  0  0  0  0  0  0  0  0  0  0  0
    4.3605    0.8509   -0.6394 N   0  0  0  0  0  0  0  0  0  0  0  0
    5.0169    1.8438   -1.2756 C   0  0  0  0  0  0  0  0  0  0  0  0
    6.4920    1.7959   -1.3276 C   0  0  0  0  0  0  0  0  0  0  0  0
    7.2200    0.7339   -0.7573 C   0  0  0  0  0  0  0  0  0  0  0  0
    8.6164    0.6898   -0.8289 C   0  0  0  0  0  0  0  0  0  0  0  0
    9.3053    1.7093   -1.4712 C   0  0  0  0  0  0  0  0  0  0  0  0
   10.6415    1.6628   -1.5408 F   0  0  0  0  0  0  0  0  0  0  0  0
    8.6263    2.7731   -2.0442 C   0  0  0  0  0  0  0  0  0  0  0  0
    7.2316    2.8137   -1.9722 C   0  0  0  0  0  0  0  0  0  0  0  0
    4.4187    2.8766   -1.9084 N   0  0  0  0  0  0  0  0  0  0  0  0
    3.0790    2.9113   -1.9162 C   0  0  0  0  0  0  0  0  0  0  0  0
    2.3140    1.9515   -1.3170 C   0  0  0  0  0  0  0  0  0  0  0  0
    3.9116   -0.9662    0.8236 H   0  0  0  0  0  0  0  0  0  0  0  0
    0.0794   -5.2434    3.9424 H   0  0  0  0  0  0  0  0  0  0  0  0
   -2.1957   -6.1617    4.1957 H   0  0  0  0  0  0  0  0  0  0  0  0
   -1.3088   -2.9534    0.5084 H   0  0  0  0  0  0  0  0  0  0  0  0
    2.1392   -4.3666    3.5051 H   0  0  0  0  0  0  0  0  0  0  0  0
    6.6992   -0.0791   -0.2542 H   0  0  0  0  0  0  0  0  0  0  0  0
    9.1659   -0.1366   -0.3902 H   0  0  0  0  0  0  0  0  0  0  0  0
    9.1779    3.5617   -2.5458 H   0  0  0  0  0  0  0  0  0  0  0  0
    6.7144    3.6550   -2.4345 H   0  0  0  0  0  0  0  0  0  0  0  0
    2.6271    3.7461   -2.4400 H   0  0  0  0  0  0  0  0  0  0  0  0
    1.2326    1.9846   -1.3412 H   0  0  0  0  0  0  0  0  0  0  0  0
  1  2  2  0  0  0  0
  2  3  1  0  0  0  0
  2 17  1  0  0  0  0
  3  4  1  0  0  0  0
  3 30  1  0  0  0  0
  4  5  2  0  0  0  0
  4 16  1  0  0  0  0
  5  6  1  0  0  0  0
  6  7  1  0  0  0  0
  6 15  1  0  0  0  0
  7  8  2  0  0  0  0
  7 14  1  0  0  0  0
  8  9  1  0  0  0  0
  8 31  1  0  0  0  0
  9 10  2  0  0  0  0
  9 32  1  0  0  0  0
 10 11  1  0  0  0  0
 10 12  1  0  0  0  0
 12 13  1  0  0  0  0
 12 14  2  0  0  0  0
 14 33  1  0  0  0  0
 15 16  2  0  0  0  0
 15 34  1  0  0  0  0
 17 18  2  0  0  0  0
 17 29  1  0  0  0  0
 18 19  1  0  0  0  0
 19 20  1  0  0  0  0
 19 27  2  0  0  0  0
 20 21  2  0  0  0  0
 20 26  1  0  0  0  0
 21 22  1  0  0  0  0
 21 35  1  0  0  0  0
 22 23  2  0  0  0  0
 22 36  1  0  0  0  0
 23 24  1  0  0  0  0
 23 25  1  0  0  0  0
 25 26  2  0  0  0  0
 25 37  1  0  0  0  0
 26 38  1  0  0  0  0
 27 28  1  0  0  0  0
 28 29  2  0  0  0  0
 28 39  1  0  0  0  0
 29 40  1  0  0  0  0
M  END
$$$$
