
 OpenBabel01122422383D

 46 49  0  0  0  0  0  0  0  0999 V2000
    1.1815    0.1869   -0.3617 C   0  0  0  0  0  0  0  0  0  0  0  0
    2.6422    0.0380   -0.1229 C   0  0  0  0  0  0  0  0  0  0  0  0
    3.4118    1.1128    0.0578 N   0  0  0  0  0  0  0  0  0  0  0  0
    4.6722    0.6331    0.1427 N   0  0  0  0  0  0  0  0  0  0  0  0
    5.7779    1.5177    0.2490 C   0  0  0  0  0  0  0  0  0  0  0  0
    5.5520    2.9028    0.3517 C   0  0  0  0  0  0  0  0  0  0  0  0
    6.6335    3.7827    0.4252 C   0  0  0  0  0  0  0  0  0  0  0  0
    7.9294    3.2827    0.3849 C   0  0  0  0  0  0  0  0  0  0  0  0
    8.9665    4.1262    0.4371 F   0  0  0  0  0  0  0  0  0  0  0  0
    8.1666    1.9166    0.2877 C   0  0  0  0  0  0  0  0  0  0  0  0
    7.0917    1.0288    0.2295 C   0  0  0  0  0  0  0  0  0  0  0  0
    4.6944   -0.7475    0.0834 C   0  0  0  0  0  0  0  0  0  0  0  0
    3.3895   -1.1676   -0.0641 C   0  0  0  0  0  0  0  0  0  0  0  0
    2.8370   -2.5026   -0.1670 C   0  0  0  0  0  0  0  0  0  0  0  0
    1.6292   -2.6402   -0.3423 O   0  0  0  0  0  0  0  0  0  0  0  0
    3.7144   -3.5652    0.0137 N   0  0  0  0  0  0  0  0  0  0  0  0
    3.3040   -4.8839    0.0189 C   0  0  0  0  0  0  0  0  0  0  0  0
    2.2158   -5.3168   -0.6344 C   0  0  0  0  0  0  0  0  0  0  0  0
    1.6714   -6.6734   -0.4433 C   0  0  0  0  0  0  0  0  0  0  0  0
    0.6341   -6.9157   -1.0611 O   0  0  0  0  0  0  0  0  0  0  0  0
    2.3546   -7.5026    0.4750 N   0  0  0  0  0  0  0  0  0  0  0  0
    1.7922   -8.7915    0.8287 C   0  0  0  0  0  0  0  0  0  0  0  0
    0.8634   -9.4483    0.0050 C   0  0  0  0  0  0  0  0  0  0  0  0
    0.2814  -10.6631    0.3702 C   0  0  0  0  0  0  0  0  0  0  0  0
    0.6283  -11.2655    1.5695 C   0  0  0  0  0  0  0  0  0  0  0  0
    1.5593  -10.6533    2.4005 C   0  0  0  0  0  0  0  0  0  0  0  0
    2.1362   -9.4306    2.0339 C   0  0  0  0  0  0  0  0  0  0  0  0
    3.5499   -7.0490    1.0438 C   0  0  0  0  0  0  0  0  0  0  0  0
    4.0476   -5.8260    0.8151 C   0  0  0  0  0  0  0  0  0  0  0  0
    0.8946    1.2373   -0.4630 H   0  0  0  0  0  0  0  0  0  0  0  0
    0.6088   -0.2475    0.4639 H   0  0  0  0  0  0  0  0  0  0  0  0
    0.8977   -0.3234   -1.2890 H   0  0  0  0  0  0  0  0  0  0  0  0
    4.5412    3.3086    0.3744 H   0  0  0  0  0  0  0  0  0  0  0  0
    6.4724    4.8535    0.5076 H   0  0  0  0  0  0  0  0  0  0  0  0
    9.1876    1.5495    0.2522 H   0  0  0  0  0  0  0  0  0  0  0  0
    7.3168   -0.0293    0.1513 H   0  0  0  0  0  0  0  0  0  0  0  0
    5.6176   -1.2994    0.1376 H   0  0  0  0  0  0  0  0  0  0  0  0
    4.6273   -3.3520    0.3846 H   0  0  0  0  0  0  0  0  0  0  0  0
    1.6148   -4.6937   -1.2844 H   0  0  0  0  0  0  0  0  0  0  0  0
    0.5702   -9.0513   -0.9624 H   0  0  0  0  0  0  0  0  0  0  0  0
   -0.4436  -11.1267   -0.2951 H   0  0  0  0  0  0  0  0  0  0  0  0
    0.1705  -12.2073    1.8564 H   0  0  0  0  0  0  0  0  0  0  0  0
    1.8284  -11.1173    3.3461 H   0  0  0  0  0  0  0  0  0  0  0  0
    2.8173   -8.9794    2.7473 H   0  0  0  0  0  0  0  0  0  0  0  0
    4.1062   -7.7363    1.6703 H   0  0  0  0  0  0  0  0  0  0  0  0
    4.9889   -5.5318    1.2662 H   0  0  0  0  0  0  0  0  0  0  0  0
  1  2  1  0  0  0  0
  1 30  1  0  0  0  0
  1 31  1  0  0  0  0
  1 32  1  0  0  0  0
  2  3  2  0  0  0  0
  2 13  1  0  0  0  0
  3  4  1  0  0  0  0
  4  5  1  0  0  0  0
  4 12  1  0  0  0  0
  5  6  2  0  0  0  0
  5 11  1  0  0  0  0
  6  7  1  0  0  0  0
  6 33  1  0  0  0  0
  7  8  2  0  0  0  0
  7 34  1  0  0  0  0
  8  9  1  0  0  0  0
  8 10  1  0  0  0  0
 10 11  2  0  0  0  0
 10 35  1  0  0  0  0
 11 36  1  0  0  0  0
 12 13  2  0  0  0  0
 12 37  1  0  0  0  0
 13 14  1  0  0  0  0
 14 15  2  0  0  0  0
 14 16  1  0  0  0  0
 16 17  1  0  0  0  0
 16 38  1  0  0  0  0
 17 18  2  0  0  0  0
 17 29  1  0  0  0  0
 18 19  1  0  0  0  0
 18 39  1  0  0  0  0
 19 20  2  0  0  0  0
 19 21  1  0  0  0  0
 21 22  1  0  0  0  0
 21 28  1  0  0  0  0
 22 23  2  0  0  0  0
 22 27  1  0  0  0  0
 23 24  1  0  0  0  0
 23 40  1  0  0  0  0
 24 25  2  0  0  0  0
 24 41  1  0  0  0  0
 25 26  1  0  0  0  0
 25 42  1  0  0  0  0
 26 27  2  0  0  0  0
 26 43  1  0  0  0  0
 27 44  1  0  0  0  0
 28 29  2  0  0  0  0
 28 45  1  0  0  0  0
 29 46  1  0  0  0  0
M  END
$$$$
