
 OpenBabel01122422383D

 42 45  0  0  0  0  0  0  0  0999 V2000
    1.0684   -0.2076    0.6926 O   0  0  0  0  0  0  0  0  0  0  0  0
    2.1805   -0.0072    0.2125 C   0  0  0  0  0  0  0  0  0  0  0  0
    2.7942    1.2271    0.1314 N   0  0  0  0  0  0  0  0  0  0  0  0
    2.1868    2.3836    0.5752 C   0  0  0  0  0  0  0  0  0  0  0  0
    2.1872    3.5803   -0.1076 C   0  0  0  0  0  0  0  0  0  0  0  0
    2.8177    3.9227   -1.3913 C   0  0  0  0  0  0  0  0  0  0  0  0
    3.5980    5.0262   -1.2835 F   0  0  0  0  0  0  0  0  0  0  0  0
    3.6459    2.9195   -1.8055 F   0  0  0  0  0  0  0  0  0  0  0  0
    1.4275    4.4568    0.6505 N   0  0  0  0  0  0  0  0  0  0  0  0
    0.8972    5.7371    0.3261 C   0  0  0  0  0  0  0  0  0  0  0  0
    0.5189    6.0665   -0.9736 C   0  0  0  0  0  0  0  0  0  0  0  0
   -0.0283    7.3203   -1.1961 C   0  0  0  0  0  0  0  0  0  0  0  0
   -0.2153    8.2418   -0.2304 N   0  0  0  0  0  0  0  0  0  0  0  0
    0.1326    7.8874    1.0249 C   0  0  0  0  0  0  0  0  0  0  0  0
    0.6722    6.6574    1.3563 C   0  0  0  0  0  0  0  0  0  0  0  0
    1.1217    3.9172    1.8628 N   0  0  0  0  0  0  0  0  0  0  0  0
    1.4779    2.6356    1.7601 C   0  0  0  0  0  0  0  0  0  0  0  0
    2.9515   -1.0716   -0.4514 C   0  0  0  0  0  0  0  0  0  0  0  0
    4.2251   -0.9005   -0.8583 N   0  0  0  0  0  0  0  0  0  0  0  0
    4.5907   -2.0978   -1.4072 N   0  0  0  0  0  0  0  0  0  0  0  0
    5.9033   -2.2805   -1.9359 C   0  0  0  0  0  0  0  0  0  0  0  0
    6.8559   -1.2544   -1.7888 C   0  0  0  0  0  0  0  0  0  0  0  0
    8.1423   -1.4116   -2.3191 C   0  0  0  0  0  0  0  0  0  0  0  0
    8.4764   -2.5824   -2.9891 C   0  0  0  0  0  0  0  0  0  0  0  0
    9.7022   -2.7274   -3.4960 F   0  0  0  0  0  0  0  0  0  0  0  0
    7.5518   -3.6047   -3.1358 C   0  0  0  0  0  0  0  0  0  0  0  0
    6.2708   -3.4525   -2.6079 C   0  0  0  0  0  0  0  0  0  0  0  0
    5.4168   -4.4652   -2.7946 F   0  0  0  0  0  0  0  0  0  0  0  0
    3.5463   -2.9928   -1.3691 C   0  0  0  0  0  0  0  0  0  0  0  0
    2.4848   -2.3635   -0.7704 C   0  0  0  0  0  0  0  0  0  0  0  0
    3.5433    1.2916   -0.5558 H   0  0  0  0  0  0  0  0  0  0  0  0
    2.0947    4.0716   -2.1942 H   0  0  0  0  0  0  0  0  0  0  0  0
    0.5490    5.3749   -1.8022 H   0  0  0  0  0  0  0  0  0  0  0  0
   -0.3660    7.6160   -2.1855 H   0  0  0  0  0  0  0  0  0  0  0  0
   -0.0387    8.6471    1.7850 H   0  0  0  0  0  0  0  0  0  0  0  0
    0.9244    6.4377    2.3887 H   0  0  0  0  0  0  0  0  0  0  0  0
    1.2679    1.9622    2.5824 H   0  0  0  0  0  0  0  0  0  0  0  0
    6.6120   -0.3348   -1.2617 H   0  0  0  0  0  0  0  0  0  0  0  0
    8.8867   -0.6268   -2.2114 H   0  0  0  0  0  0  0  0  0  0  0  0
    7.8202   -4.5144   -3.6627 H   0  0  0  0  0  0  0  0  0  0  0  0
    3.6252   -3.9982   -1.7513 H   0  0  0  0  0  0  0  0  0  0  0  0
    1.5000   -2.7708   -0.5855 H   0  0  0  0  0  0  0  0  0  0  0  0
  1  2  2  0  0  0  0
  2  3  1  0  0  0  0
  2 18  1  0  0  0  0
  3  4  1  0  0  0  0
  3 31  1  0  0  0  0
  4  5  2  0  0  0  0
  4 17  1  0  0  0  0
  5  6  1  0  0  0  0
  5  9  1  0  0  0  0
  6  7  1  0  0  0  0
  6  8  1  0  0  0  0
  6 32  1  0  0  0  0
  9 10  1  0  0  0  0
  9 16  1  0  0  0  0
 10 11  2  0  0  0  0
 10 15  1  0  0  0  0
 11 12  1  0  0  0  0
 11 33  1  0  0  0  0
 12 13  2  0  0  0  0
 12 34  1  0  0  0  0
 13 14  1  0  0  0  0
 14 15  2  0  0  0  0
 14 35  1  0  0  0  0
 15 36  1  0  0  0  0
 16 17  2  0  0  0  0
 17 37  1  0  0  0  0
 18 19  2  0  0  0  0
 18 30  1  0  0  0  0
 19 20  1  0  0  0  0
 20 21  1  0  0  0  0
 20 29  1  0  0  0  0
 21 22  2  0  0  0  0
 21 27  1  0  0  0  0
 22 23  1  0  0  0  0
 22 38  1  0  0  0  0
 23 24  2  0  0  0  0
 23 39  1  0  0  0  0
 24 25  1  0  0  0  0
 24 26  1  0  0  0  0
 26 27  2  0  0  0  0
 26 40  1  0  0  0  0
 27 28  1  0  0  0  0
 29 30  2  0  0  0  0
 29 41  1  0  0  0  0
 30 42  1  0  0  0  0
M  END
$$$$
