
 OpenBabel01122422383D

 43 45  0  0  0  0  0  0  0  0999 V2000
    3.0589    0.6897   -0.8286 O   0  0  0  0  0  0  0  0  0  0  0  0
    2.3895   -0.1709   -0.2747 C   0  0  0  0  0  0  0  0  0  0  0  0
    1.0354   -0.3483   -0.5144 N   0  0  0  0  0  0  0  0  0  0  0  0
    0.2700    0.5251   -1.3946 C   0  0  0  0  0  0  0  0  0  0  0  0
    0.3395    0.1073   -2.8697 C   0  0  0  0  0  0  0  0  0  0  0  0
   -0.4488    1.0101   -3.7856 C   0  0  0  0  0  0  0  0  0  0  0  0
    0.1695    1.7346   -4.8061 C   0  0  0  0  0  0  0  0  0  0  0  0
    1.4916    1.6447   -5.0019 F   0  0  0  0  0  0  0  0  0  0  0  0
   -0.5919    2.5473   -5.6363 C   0  0  0  0  0  0  0  0  0  0  0  0
   -1.9352    2.6859   -5.5333 N   0  0  0  0  0  0  0  0  0  0  0  0
   -2.5271    1.9700   -4.5454 C   0  0  0  0  0  0  0  0  0  0  0  0
   -1.8341    1.1386   -3.6765 C   0  0  0  0  0  0  0  0  0  0  0  0
   -2.5066    0.4534   -2.7407 F   0  0  0  0  0  0  0  0  0  0  0  0
    3.0052   -1.0967    0.7229 C   0  0  0  0  0  0  0  0  0  0  0  0
    2.5930   -2.4448    0.6685 C   0  0  0  0  0  0  0  0  0  0  0  0
    3.1518   -3.4137    1.5025 C   0  0  0  0  0  0  0  0  0  0  0  0
    4.1534   -3.0598    2.3942 C   0  0  0  0  0  0  0  0  0  0  0  0
    4.5793   -1.7349    2.4586 C   0  0  0  0  0  0  0  0  0  0  0  0
    4.0162   -0.7291    1.6397 C   0  0  0  0  0  0  0  0  0  0  0  0
    4.6281    0.6204    1.8414 C   0  0  0  0  0  0  0  0  0  0  0  0
    5.7892    0.6799    2.2492 O   0  0  0  0  0  0  0  0  0  0  0  0
    3.9317    1.9077    1.6290 C   0  0  0  0  0  0  0  0  0  0  0  0
    2.5549    2.0716    1.8361 C   0  0  0  0  0  0  0  0  0  0  0  0
    1.9408    3.2715    1.4666 C   0  0  0  0  0  0  0  0  0  0  0  0
    2.7122    4.3135    0.9575 C   0  0  0  0  0  0  0  0  0  0  0  0
    2.1101    5.4477    0.5755 F   0  0  0  0  0  0  0  0  0  0  0  0
    4.0899    4.1816    0.8439 C   0  0  0  0  0  0  0  0  0  0  0  0
    4.8320    5.1995    0.3864 F   0  0  0  0  0  0  0  0  0  0  0  0
    4.7084    2.9868    1.1828 C   0  0  0  0  0  0  0  0  0  0  0  0
    0.5231   -1.0706   -0.0251 H   0  0  0  0  0  0  0  0  0  0  0  0
    0.6274    1.5529   -1.2692 H   0  0  0  0  0  0  0  0  0  0  0  0
   -0.7629    0.4880   -1.0313 H   0  0  0  0  0  0  0  0  0  0  0  0
   -0.0381   -0.9172   -2.9865 H   0  0  0  0  0  0  0  0  0  0  0  0
    1.3888    0.0734   -3.1857 H   0  0  0  0  0  0  0  0  0  0  0  0
   -0.1208    3.1150   -6.4360 H   0  0  0  0  0  0  0  0  0  0  0  0
   -3.6044    2.0777   -4.4718 H   0  0  0  0  0  0  0  0  0  0  0  0
    1.8572   -2.7731   -0.0636 H   0  0  0  0  0  0  0  0  0  0  0  0
    2.8286   -4.4483    1.4313 H   0  0  0  0  0  0  0  0  0  0  0  0
    4.6193   -3.8125    3.0263 H   0  0  0  0  0  0  0  0  0  0  0  0
    5.3827   -1.4872    3.1539 H   0  0  0  0  0  0  0  0  0  0  0  0
    1.9455    1.2660    2.2340 H   0  0  0  0  0  0  0  0  0  0  0  0
    0.8657    3.3932    1.5473 H   0  0  0  0  0  0  0  0  0  0  0  0
    5.7843    2.8893    1.0626 H   0  0  0  0  0  0  0  0  0  0  0  0
  1  2  2  0  0  0  0
  2  3  1  0  0  0  0
  2 14  1  0  0  0  0
  3  4  1  0  0  0  0
  3 30  1  0  0  0  0
  4  5  1  0  0  0  0
  4 31  1  0  0  0  0
  4 32  1  0  0  0  0
  5  6  1  0  0  0  0
  5 33  1  0  0  0  0
  5 34  1  0  0  0  0
  6  7  2  0  0  0  0
  6 12  1  0  0  0  0
  7  8  1  0  0  0  0
  7  9  1  0  0  0  0
  9 10  2  0  0  0  0
  9 35  1  0  0  0  0
 10 11  1  0  0  0  0
 11 12  2  0  0  0  0
 11 36  1  0  0  0  0
 12 13  1  0  0  0  0
 14 15  2  0  0  0  0
 14 19  1  0  0  0  0
 15 16  1  0  0  0  0
 15 37  1  0  0  0  0
 16 17  2  0  0  0  0
 16 38  1  0  0  0  0
 17 18  1  0  0  0  0
 17 39  1  0  0  0  0
 18 19  2  0  0  0  0
 18 40  1  0  0  0  0
 19 20  1  0  0  0  0
 20 21  2  0  0  0  0
 20 22  1  0  0  0  0
 22 23  2  0  0  0  0
 22 29  1  0  0  0  0
 23 24  1  0  0  0  0
 23 41  1  0  0  0  0
 24 25  2  0  0  0  0
 24 42  1  0  0  0  0
 25 26  1  0  0  0  0
 25 27  1  0  0  0  0
 27 28  1  0  0  0  0
 27 29  2  0  0  0  0
 29 43  1  0  0  0  0
M  END
$$$$
