
 OpenBabel01122422353D

 45 47  0  0  0  0  0  0  0  0999 V2000
    3.3798    0.3895    2.6458 O   0  0  0  0  0  0  0  0  0  0  0  0
    3.4703    0.1564    1.4404 C   0  0  0  0  0  0  0  0  0  0  0  0
    3.0231    1.0206    0.4670 N   0  0  0  0  0  0  0  0  0  0  0  0
    2.3664    2.2747    0.7868 C   0  0  0  0  0  0  0  0  0  0  0  0
    3.3373    3.3868    1.1229 C   0  0  0  0  0  0  0  0  0  0  0  0
    3.7528    3.5731    2.4390 C   0  0  0  0  0  0  0  0  0  0  0  0
    4.7425    4.5150    2.7071 C   0  0  0  0  0  0  0  0  0  0  0  0
    5.2806    4.7456    3.9531 O   0  0  0  0  0  0  0  0  0  0  0  0
    5.4437    3.7025    4.8395 C   0  0  0  0  0  0  0  0  0  0  0  0
    5.7009    2.3766    4.4674 C   0  0  0  0  0  0  0  0  0  0  0  0
    5.8017    1.3789    5.4400 C   0  0  0  0  0  0  0  0  0  0  0  0
    5.7099    1.7208    6.7833 C   0  0  0  0  0  0  0  0  0  0  0  0
    5.8070    0.7614    7.7134 F   0  0  0  0  0  0  0  0  0  0  0  0
    5.5274    3.0466    7.1579 C   0  0  0  0  0  0  0  0  0  0  0  0
    5.4730    3.3772    8.4558 F   0  0  0  0  0  0  0  0  0  0  0  0
    5.3939    4.0423    6.1944 C   0  0  0  0  0  0  0  0  0  0  0  0
    5.2012    5.3295    1.6801 C   0  0  0  0  0  0  0  0  0  0  0  0
    4.7052    5.1109    0.4069 C   0  0  0  0  0  0  0  0  0  0  0  0
    3.8088    4.1456    0.1011 N   0  0  0  0  0  0  0  0  0  0  0  0
    4.1093   -1.1099    0.9630 C   0  0  0  0  0  0  0  0  0  0  0  0
    3.8746   -1.4711   -0.3282 N   0  0  0  0  0  0  0  0  0  0  0  0
    4.4116   -2.6508   -0.7091 C   0  0  0  0  0  0  0  0  0  0  0  0
    4.2043   -3.1051   -1.9934 O   0  0  0  0  0  0  0  0  0  0  0  0
    3.8569   -2.0685   -2.9183 C   0  0  0  0  0  0  0  0  0  0  0  0
    4.9871   -1.0693   -3.1372 C   0  0  0  0  0  0  0  0  0  0  0  0
    6.0694   -1.7111   -3.6533 F   0  0  0  0  0  0  0  0  0  0  0  0
    4.6091   -0.1503   -4.0609 F   0  0  0  0  0  0  0  0  0  0  0  0
    5.1895   -3.4616    0.1037 C   0  0  0  0  0  0  0  0  0  0  0  0
    5.4470   -3.0403    1.4026 C   0  0  0  0  0  0  0  0  0  0  0  0
    4.8862   -1.8486    1.8475 C   0  0  0  0  0  0  0  0  0  0  0  0
    3.2241    0.8025   -0.4987 H   0  0  0  0  0  0  0  0  0  0  0  0
    1.6727    2.1152    1.6205 H   0  0  0  0  0  0  0  0  0  0  0  0
    1.7708    2.5622   -0.0874 H   0  0  0  0  0  0  0  0  0  0  0  0
    3.3297    2.9578    3.2272 H   0  0  0  0  0  0  0  0  0  0  0  0
    5.7977    2.0937    3.4222 H   0  0  0  0  0  0  0  0  0  0  0  0
    5.9431    0.3415    5.1539 H   0  0  0  0  0  0  0  0  0  0  0  0
    5.2445    5.0710    6.5055 H   0  0  0  0  0  0  0  0  0  0  0  0
    5.9321    6.1082    1.8643 H   0  0  0  0  0  0  0  0  0  0  0  0
    5.0311    5.7221   -0.4304 H   0  0  0  0  0  0  0  0  0  0  0  0
    2.9229   -1.5719   -2.6280 H   0  0  0  0  0  0  0  0  0  0  0  0
    3.6463   -2.5650   -3.8728 H   0  0  0  0  0  0  0  0  0  0  0  0
    5.3045   -0.5461   -2.2323 H   0  0  0  0  0  0  0  0  0  0  0  0
    5.6023   -4.3905   -0.2751 H   0  0  0  0  0  0  0  0  0  0  0  0
    6.0737   -3.6357    2.0608 H   0  0  0  0  0  0  0  0  0  0  0  0
    5.0526   -1.5027    2.8628 H   0  0  0  0  0  0  0  0  0  0  0  0
  1  2  2  0  0  0  0
  2  3  1  0  0  0  0
  2 20  1  0  0  0  0
  3  4  1  0  0  0  0
  3 31  1  0  0  0  0
  4  5  1  0  0  0  0
  4 32  1  0  0  0  0
  4 33  1  0  0  0  0
  5  6  2  0  0  0  0
  5 19  1  0  0  0  0
  6  7  1  0  0  0  0
  6 34  1  0  0  0  0
  7  8  1  0  0  0  0
  7 17  2  0  0  0  0
  8  9  1  0  0  0  0
  9 10  2  0  0  0  0
  9 16  1  0  0  0  0
 10 11  1  0  0  0  0
 10 35  1  0  0  0  0
 11 12  2  0  0  0  0
 11 36  1  0  0  0  0
 12 13  1  0  0  0  0
 12 14  1  0  0  0  0
 14 15  1  0  0  0  0
 14 16  2  0  0  0  0
 16 37  1  0  0  0  0
 17 18  1  0  0  0  0
 17 38  1  0  0  0  0
 18 19  2  0  0  0  0
 18 39  1  0  0  0  0
 20 21  2  0  0  0  0
 20 30  1  0  0  0  0
 21 22  1  0  0  0  0
 22 23  1  0  0  0  0
 22 28  2  0  0  0  0
 23 24  1  0  0  0  0
 24 25  1  0  0  0  0
 24 40  1  0  0  0  0
 24 41  1  0  0  0  0
 25 26  1  0  0  0  0
 25 27  1  0  0  0  0
 25 42  1  0  0  0  0
 28 29  1  0  0  0  0
 28 43  1  0  0  0  0
 29 30  2  0  0  0  0
 29 44  1  0  0  0  0
 30 45  1  0  0  0  0
M  END
$$$$
