
 OpenBabel01122422383D

 41 44  0  0  0  0  0  0  0  0999 V2000
    0.9698    0.2124   -0.2497 O   0  0  0  0  0  0  0  0  0  0  0  0
    2.1852    0.1966   -0.1098 C   0  0  0  0  0  0  0  0  0  0  0  0
    2.9062    0.6751    0.9630 N   0  0  0  0  0  0  0  0  0  0  0  0
    2.3059    1.0947    2.1402 C   0  0  0  0  0  0  0  0  0  0  0  0
    1.0764    0.7184    2.5145 N   0  0  0  0  0  0  0  0  0  0  0  0
    0.8253    1.3217    3.7222 O   0  0  0  0  0  0  0  0  0  0  0  0
    1.8918    2.0690    4.0784 C   0  0  0  0  0  0  0  0  0  0  0  0
    2.8726    1.9776    3.1152 C   0  0  0  0  0  0  0  0  0  0  0  0
    4.0843    2.7850    3.1197 C   0  0  0  0  0  0  0  0  0  0  0  0
    4.0680    4.0785    3.6722 C   0  0  0  0  0  0  0  0  0  0  0  0
    5.1839    4.9152    3.5743 C   0  0  0  0  0  0  0  0  0  0  0  0
    6.3345    4.4715    2.9282 C   0  0  0  0  0  0  0  0  0  0  0  0
    6.3789    3.1823    2.4030 C   0  0  0  0  0  0  0  0  0  0  0  0
    5.2645    2.3507    2.5068 C   0  0  0  0  0  0  0  0  0  0  0  0
    5.3486    1.1212    1.9747 F   0  0  0  0  0  0  0  0  0  0  0  0
    3.0167   -0.2833   -1.2815 C   0  0  0  0  0  0  0  0  0  0  0  0
    4.2186    0.2207   -1.4325 N   0  0  0  0  0  0  0  0  0  0  0  0
    4.9043   -0.0997   -2.5949 N   0  0  0  0  0  0  0  0  0  0  0  0
    6.2025    0.4934   -2.7171 C   0  0  0  0  0  0  0  0  0  0  0  0
    7.0238    0.6305   -1.5819 C   0  0  0  0  0  0  0  0  0  0  0  0
    8.3078    1.1828   -1.6731 C   0  0  0  0  0  0  0  0  0  0  0  0
    8.7954    1.6261   -2.9004 C   0  0  0  0  0  0  0  0  0  0  0  0
    8.0025    1.5105   -4.0374 C   0  0  0  0  0  0  0  0  0  0  0  0
    6.7276    0.9489   -3.9418 C   0  0  0  0  0  0  0  0  0  0  0  0
    6.0000    0.8936   -5.0690 F   0  0  0  0  0  0  0  0  0  0  0  0
    4.3260   -0.8376   -3.6095 C   0  0  0  0  0  0  0  0  0  0  0  0
    3.1353   -1.4276   -3.5505 C   0  0  0  0  0  0  0  0  0  0  0  0
    2.4406   -1.2810   -2.2706 C   0  0  0  0  0  0  0  0  0  0  0  0
    1.4747   -1.9763   -2.0031 O   0  0  0  0  0  0  0  0  0  0  0  0
    3.9030    0.8206    0.8509 H   0  0  0  0  0  0  0  0  0  0  0  0
    1.7797    2.6098    5.0063 H   0  0  0  0  0  0  0  0  0  0  0  0
    3.1750    4.4743    4.1521 H   0  0  0  0  0  0  0  0  0  0  0  0
    5.1416    5.9223    3.9840 H   0  0  0  0  0  0  0  0  0  0  0  0
    7.1915    5.1331    2.8282 H   0  0  0  0  0  0  0  0  0  0  0  0
    7.2693    2.8240    1.8962 H   0  0  0  0  0  0  0  0  0  0  0  0
    6.6736    0.2734   -0.6162 H   0  0  0  0  0  0  0  0  0  0  0  0
    8.9279    1.2588   -0.7836 H   0  0  0  0  0  0  0  0  0  0  0  0
    9.7891    2.0616   -2.9711 H   0  0  0  0  0  0  0  0  0  0  0  0
    8.3615    1.8567   -5.0012 H   0  0  0  0  0  0  0  0  0  0  0  0
    4.9317   -0.9705   -4.5035 H   0  0  0  0  0  0  0  0  0  0  0  0
    2.7028   -2.0370   -4.3288 H   0  0  0  0  0  0  0  0  0  0  0  0
  1  2  2  0  0  0  0
  2  3  1  0  0  0  0
  2 16  1  0  0  0  0
  3  4  1  0  0  0  0
  3 30  1  0  0  0  0
  4  5  2  0  0  0  0
  4  8  1  0  0  0  0
  5  6  1  0  0  0  0
  6  7  1  0  0  0  0
  7  8  2  0  0  0  0
  7 31  1  0  0  0  0
  8  9  1  0  0  0  0
  9 10  2  0  0  0  0
  9 14  1  0  0  0  0
 10 11  1  0  0  0  0
 10 32  1  0  0  0  0
 11 12  2  0  0  0  0
 11 33  1  0  0  0  0
 12 13  1  0  0  0  0
 12 34  1  0  0  0  0
 13 14  2  0  0  0  0
 13 35  1  0  0  0  0
 14 15  1  0  0  0  0
 16 17  2  0  0  0  0
 16 28  1  0  0  0  0
 17 18  1  0  0  0  0
 18 19  1  0  0  0  0
 18 26  1  0  0  0  0
 19 20  2  0  0  0  0
 19 24  1  0  0  0  0
 20 21  1  0  0  0  0
 20 36  1  0  0  0  0
 21 22  2  0  0  0  0
 21 37  1  0  0  0  0
 22 23  1  0  0  0  0
 22 38  1  0  0  0  0
 23 24  2  0  0  0  0
 23 39  1  0  0  0  0
 24 25  1  0  0  0  0
 26 27  2  0  0  0  0
 26 40  1  0  0  0  0
 27 28  1  0  0  0  0
 27 41  1  0  0  0  0
 28 29  2  0  0  0  0
M  END
$$$$
