
 OpenBabel01122422383D

 43 46  0  0  0  0  0  0  0  0999 V2000
    3.1393    0.2298    2.6799 O   0  0  0  0  0  0  0  0  0  0  0  0
    3.3949    0.0564    1.4898 C   0  0  0  0  0  0  0  0  0  0  0  0
    3.0676    1.0095    0.5491 N   0  0  0  0  0  0  0  0  0  0  0  0
    2.3956    2.2445    0.9040 C   0  0  0  0  0  0  0  0  0  0  0  0
    3.3636    3.3426    1.2825 C   0  0  0  0  0  0  0  0  0  0  0  0
    3.7551    3.4959    2.6083 C   0  0  0  0  0  0  0  0  0  0  0  0
    4.7513    4.4216    2.9140 C   0  0  0  0  0  0  0  0  0  0  0  0
    5.2704    4.6204    4.1733 O   0  0  0  0  0  0  0  0  0  0  0  0
    5.3944    3.5570    5.0435 C   0  0  0  0  0  0  0  0  0  0  0  0
    5.6398    2.2348    4.6503 C   0  0  0  0  0  0  0  0  0  0  0  0
    5.6968    1.2162    5.6039 C   0  0  0  0  0  0  0  0  0  0  0  0
    5.5761    1.5330    6.9509 C   0  0  0  0  0  0  0  0  0  0  0  0
    5.6319    0.5540    7.8639 F   0  0  0  0  0  0  0  0  0  0  0  0
    5.4076    2.8545    7.3483 C   0  0  0  0  0  0  0  0  0  0  0  0
    5.3260    3.1599    8.6507 F   0  0  0  0  0  0  0  0  0  0  0  0
    5.3157    3.8710    6.4021 C   0  0  0  0  0  0  0  0  0  0  0  0
    5.2404    5.2484    1.9105 C   0  0  0  0  0  0  0  0  0  0  0  0
    4.7669    5.0607    0.6247 C   0  0  0  0  0  0  0  0  0  0  0  0
    3.8653    4.1126    0.2838 N   0  0  0  0  0  0  0  0  0  0  0  0
    4.0438   -1.1456    1.0092 C   0  0  0  0  0  0  0  0  0  0  0  0
    4.3662   -2.2576    1.7605 C   0  0  0  0  0  0  0  0  0  0  0  0
    4.9696   -3.2964    1.0799 N   0  0  0  0  0  0  0  0  0  0  0  0
    5.1272   -2.9753   -0.1928 C   0  0  0  0  0  0  0  0  0  0  0  0
    5.7628   -3.8507   -1.1896 C   0  0  0  0  0  0  0  0  0  0  0  0
    6.1526   -5.1453   -0.8531 C   0  0  0  0  0  0  0  0  0  0  0  0
    6.7698   -5.9862   -1.7240 N   0  0  0  0  0  0  0  0  0  0  0  0
    6.9879   -5.4786   -2.9556 C   0  0  0  0  0  0  0  0  0  0  0  0
    6.6010   -4.1953   -3.3040 C   0  0  0  0  0  0  0  0  0  0  0  0
    5.9829   -3.3557   -2.4379 N   0  0  0  0  0  0  0  0  0  0  0  0
    4.5226   -1.4098   -0.6124 S   0  0  0  0  0  0  0  0  0  0  0  0
    3.4039    0.9032   -0.3996 H   0  0  0  0  0  0  0  0  0  0  0  0
    1.6898    2.0608    1.7218 H   0  0  0  0  0  0  0  0  0  0  0  0
    1.8125    2.5577    0.0303 H   0  0  0  0  0  0  0  0  0  0  0  0
    3.3098    2.8720    3.3769 H   0  0  0  0  0  0  0  0  0  0  0  0
    5.7631    1.9720    3.6025 H   0  0  0  0  0  0  0  0  0  0  0  0
    5.8293    0.1825    5.3001 H   0  0  0  0  0  0  0  0  0  0  0  0
    5.1761    4.8962    6.7309 H   0  0  0  0  0  0  0  0  0  0  0  0
    5.9776    6.0141    2.1237 H   0  0  0  0  0  0  0  0  0  0  0  0
    5.1169    5.6828   -0.1951 H   0  0  0  0  0  0  0  0  0  0  0  0
    4.1715   -2.3626    2.8221 H   0  0  0  0  0  0  0  0  0  0  0  0
    5.9819   -5.5497    0.1401 H   0  0  0  0  0  0  0  0  0  0  0  0
    7.4873   -6.1334   -3.6610 H   0  0  0  0  0  0  0  0  0  0  0  0
    6.7840   -3.8015   -4.2975 H   0  0  0  0  0  0  0  0  0  0  0  0
  1  2  2  0  0  0  0
  2  3  1  0  0  0  0
  2 20  1  0  0  0  0
  3  4  1  0  0  0  0
  3 31  1  0  0  0  0
  4  5  1  0  0  0  0
  4 32  1  0  0  0  0
  4 33  1  0  0  0  0
  5  6  2  0  0  0  0
  5 19  1  0  0  0  0
  6  7  1  0  0  0  0
  6 34  1  0  0  0  0
  7  8  1  0  0  0  0
  7 17  2  0  0  0  0
  8  9  1  0  0  0  0
  9 10  2  0  0  0  0
  9 16  1  0  0  0  0
 10 11  1  0  0  0  0
 10 35  1  0  0  0  0
 11 12  2  0  0  0  0
 11 36  1  0  0  0  0
 12 13  1  0  0  0  0
 12 14  1  0  0  0  0
 14 15  1  0  0  0  0
 14 16  2  0  0  0  0
 16 37  1  0  0  0  0
 17 18  1  0  0  0  0
 17 38  1  0  0  0  0
 18 19  2  0  0  0  0
 18 39  1  0  0  0  0
 20 21  2  0  0  0  0
 20 30  1  0  0  0  0
 21 22  1  0  0  0  0
 21 40  1  0  0  0  0
 22 23  2  0  0  0  0
 23 24  1  0  0  0  0
 23 30  1  0  0  0  0
 24 25  2  0  0  0  0
 24 29  1  0  0  0  0
 25 26  1  0  0  0  0
 25 41  1  0  0  0  0
 26 27  2  0  0  0  0
 27 28  1  0  0  0  0
 27 42  1  0  0  0  0
 28 29  2  0  0  0  0
 28 43  1  0  0  0  0
M  END
$$$$
