
 OpenBabel01122422383D

 39 42  0  0  0  0  0  0  0  0999 V2000
    0.8573   -0.0446    0.0653 O   0  0  0  0  0  0  0  0  0  0  0  0
    2.0722    0.1195    0.0514 C   0  0  0  0  0  0  0  0  0  0  0  0
    2.7933    0.7704    1.0384 N   0  0  0  0  0  0  0  0  0  0  0  0
    2.2276    1.2196    2.2164 C   0  0  0  0  0  0  0  0  0  0  0  0
    0.9903    0.9003    2.7155 C   0  0  0  0  0  0  0  0  0  0  0  0
    0.8072    1.6008    3.8824 N   0  0  0  0  0  0  0  0  0  0  0  0
   -0.3371    1.6206    4.7224 C   0  0  0  0  0  0  0  0  0  0  0  0
   -0.3738    2.5020    5.8154 C   0  0  0  0  0  0  0  0  0  0  0  0
   -1.4979    2.5458    6.6478 C   0  0  0  0  0  0  0  0  0  0  0  0
   -2.5859    1.7107    6.4086 C   0  0  0  0  0  0  0  0  0  0  0  0
   -2.5544    0.8295    5.3291 C   0  0  0  0  0  0  0  0  0  0  0  0
   -1.4393    0.7890    4.4950 C   0  0  0  0  0  0  0  0  0  0  0  0
   -1.4765   -0.0969    3.4911 F   0  0  0  0  0  0  0  0  0  0  0  0
    1.9163    2.3380    4.1791 N   0  0  0  0  0  0  0  0  0  0  0  0
    2.7689    2.0818    3.1830 C   0  0  0  0  0  0  0  0  0  0  0  0
    2.8872   -0.3776   -1.0559 C   0  0  0  0  0  0  0  0  0  0  0  0
    4.1009    0.1391   -1.3238 N   0  0  0  0  0  0  0  0  0  0  0  0
    4.5217   -0.4852   -2.4840 O   0  0  0  0  0  0  0  0  0  0  0  0
    3.5959   -1.3937   -2.8762 C   0  0  0  0  0  0  0  0  0  0  0  0
    2.5445   -1.4044   -1.9911 C   0  0  0  0  0  0  0  0  0  0  0  0
    1.3677   -2.2537   -2.0869 C   0  0  0  0  0  0  0  0  0  0  0  0
    0.7567   -2.7552   -0.9206 C   0  0  0  0  0  0  0  0  0  0  0  0
   -0.4630   -3.4321   -0.9905 C   0  0  0  0  0  0  0  0  0  0  0  0
   -1.0545   -3.6517   -2.2268 C   0  0  0  0  0  0  0  0  0  0  0  0
   -2.2374   -4.2747   -2.2897 F   0  0  0  0  0  0  0  0  0  0  0  0
   -0.4412   -3.2298   -3.3975 C   0  0  0  0  0  0  0  0  0  0  0  0
    0.7645   -2.5341   -3.3176 C   0  0  0  0  0  0  0  0  0  0  0  0
    1.3207   -2.1097   -4.4631 F   0  0  0  0  0  0  0  0  0  0  0  0
    3.7673    0.9783    0.8459 H   0  0  0  0  0  0  0  0  0  0  0  0
    0.2266    0.2510    2.3208 H   0  0  0  0  0  0  0  0  0  0  0  0
    0.4601    3.1702    6.0235 H   0  0  0  0  0  0  0  0  0  0  0  0
   -1.5178    3.2368    7.4880 H   0  0  0  0  0  0  0  0  0  0  0  0
   -3.4556    1.7433    7.0572 H   0  0  0  0  0  0  0  0  0  0  0  0
   -3.3913    0.1675    5.1308 H   0  0  0  0  0  0  0  0  0  0  0  0
    3.7394    2.5614    3.1924 H   0  0  0  0  0  0  0  0  0  0  0  0
    3.8314   -1.9337   -3.7828 H   0  0  0  0  0  0  0  0  0  0  0  0
    1.1916   -2.5847    0.0619 H   0  0  0  0  0  0  0  0  0  0  0  0
   -0.9643   -3.7594   -0.0843 H   0  0  0  0  0  0  0  0  0  0  0  0
   -0.9051   -3.4147   -4.3582 H   0  0  0  0  0  0  0  0  0  0  0  0
  1  2  2  0  0  0  0
  2  3  1  0  0  0  0
  2 16  1  0  0  0  0
  3  4  1  0  0  0  0
  3 29  1  0  0  0  0
  4  5  2  0  0  0  0
  4 15  1  0  0  0  0
  5  6  1  0  0  0  0
  5 30  1  0  0  0  0
  6  7  1  0  0  0  0
  6 14  1  0  0  0  0
  7  8  2  0  0  0  0
  7 12  1  0  0  0  0
  8  9  1  0  0  0  0
  8 31  1  0  0  0  0
  9 10  2  0  0  0  0
  9 32  1  0  0  0  0
 10 11  1  0  0  0  0
 10 33  1  0  0  0  0
 11 12  2  0  0  0  0
 11 34  1  0  0  0  0
 12 13  1  0  0  0  0
 14 15  2  0  0  0  0
 15 35  1  0  0  0  0
 16 17  2  0  0  0  0
 16 20  1  0  0  0  0
 17 18  1  0  0  0  0
 18 19  1  0  0  0  0
 19 20  2  0  0  0  0
 19 36  1  0  0  0  0
 20 21  1  0  0  0  0
 21 22  2  0  0  0  0
 21 27  1  0  0  0  0
 22 23  1  0  0  0  0
 22 37  1  0  0  0  0
 23 24  2  0  0  0  0
 23 38  1  0  0  0  0
 24 25  1  0  0  0  0
 24 26  1  0  0  0  0
 26 27  2  0  0  0  0
 26 39  1  0  0  0  0
 27 28  1  0  0  0  0
M  END
$$$$
