
 OpenBabel01122422383D

 43 46  0  0  0  0  0  0  0  0999 V2000
    0.8789   -0.7350   -0.1299 O   0  0  0  0  0  0  0  0  0  0  0  0
    1.9174   -0.1682   -0.4508 C   0  0  0  0  0  0  0  0  0  0  0  0
    2.1804    1.1961   -0.2853 N   0  0  0  0  0  0  0  0  0  0  0  0
    1.4543    2.0912    0.4853 C   0  0  0  0  0  0  0  0  0  0  0  0
    0.2847    1.8801    1.0852 C   0  0  0  0  0  0  0  0  0  0  0  0
   -0.3697    2.8921    1.9521 C   0  0  0  0  0  0  0  0  0  0  0  0
   -1.4429    2.5583    2.4515 O   0  0  0  0  0  0  0  0  0  0  0  0
    0.3064    4.1106    2.1093 N   0  0  0  0  0  0  0  0  0  0  0  0
   -0.2191    5.2417    2.8431 C   0  0  0  0  0  0  0  0  0  0  0  0
   -1.4800    5.2352    3.4603 C   0  0  0  0  0  0  0  0  0  0  0  0
   -2.0028    6.3787    4.0832 C   0  0  0  0  0  0  0  0  0  0  0  0
   -1.2690    7.5586    4.1169 C   0  0  0  0  0  0  0  0  0  0  0  0
    0.0008    7.5846    3.5529 C   0  0  0  0  0  0  0  0  0  0  0  0
    0.5189    6.4398    2.9333 C   0  0  0  0  0  0  0  0  0  0  0  0
    1.5304    4.3550    1.5019 N   0  0  0  0  0  0  0  0  0  0  0  0
    2.0370    3.4236    0.7648 C   0  0  0  0  0  0  0  0  0  0  0  0
    3.1079   -1.0329   -0.8140 C   0  0  0  0  0  0  0  0  0  0  0  0
    3.4108   -1.8147    0.2962 C   0  0  0  0  0  0  0  0  0  0  0  0
    4.4573   -1.3789    1.0993 C   0  0  0  0  0  0  0  0  0  0  0  0
    4.5107   -1.7756    2.4410 C   0  0  0  0  0  0  0  0  0  0  0  0
    5.3406   -1.0925    3.3173 C   0  0  0  0  0  0  0  0  0  0  0  0
    6.1704   -0.0800    2.8380 C   0  0  0  0  0  0  0  0  0  0  0  0
    6.1875    0.2296    1.4712 C   0  0  0  0  0  0  0  0  0  0  0  0
    5.3313   -0.3939    0.5800 C   0  0  0  0  0  0  0  0  0  0  0  0
    5.2779   -0.0264   -0.7093 N   0  0  0  0  0  0  0  0  0  0  0  0
    4.1797   -0.4032   -1.4272 C   0  0  0  0  0  0  0  0  0  0  0  0
    4.1131   -0.1042   -2.9017 C   0  0  0  0  0  0  0  0  0  0  0  0
    3.2573   -0.9214   -3.5782 F   0  0  0  0  0  0  0  0  0  0  0  0
    3.6931    1.1674   -3.1535 F   0  0  0  0  0  0  0  0  0  0  0  0
    3.0872    1.5386   -0.5894 H   0  0  0  0  0  0  0  0  0  0  0  0
   -0.2722    0.9577    0.9874 H   0  0  0  0  0  0  0  0  0  0  0  0
   -2.1145    4.3560    3.4692 H   0  0  0  0  0  0  0  0  0  0  0  0
   -2.9940    6.3419    4.5277 H   0  0  0  0  0  0  0  0  0  0  0  0
   -1.6847    8.4494    4.5805 H   0  0  0  0  0  0  0  0  0  0  0  0
    0.5899    8.4947    3.5865 H   0  0  0  0  0  0  0  0  0  0  0  0
    1.5157    6.5063    2.5073 H   0  0  0  0  0  0  0  0  0  0  0  0
    3.0132    3.6263    0.2914 H   0  0  0  0  0  0  0  0  0  0  0  0
    2.6451   -2.4719    0.7084 H   0  0  0  0  0  0  0  0  0  0  0  0
    3.8370   -2.5394    2.8215 H   0  0  0  0  0  0  0  0  0  0  0  0
    5.3057   -1.3213    4.3786 H   0  0  0  0  0  0  0  0  0  0  0  0
    6.7747    0.4957    3.5347 H   0  0  0  0  0  0  0  0  0  0  0  0
    6.8466    1.0229    1.1155 H   0  0  0  0  0  0  0  0  0  0  0  0
    5.1050   -0.2331   -3.3456 H   0  0  0  0  0  0  0  0  0  0  0  0
  1  2  2  0  0  0  0
  2  3  1  0  0  0  0
  2 17  1  0  0  0  0
  3  4  1  0  0  0  0
  3 30  1  0  0  0  0
  4  5  2  0  0  0  0
  4 16  1  0  0  0  0
  5  6  1  0  0  0  0
  5 31  1  0  0  0  0
  6  7  2  0  0  0  0
  6  8  1  0  0  0  0
  8  9  1  0  0  0  0
  8 15  1  0  0  0  0
  9 10  2  0  0  0  0
  9 14  1  0  0  0  0
 10 11  1  0  0  0  0
 10 32  1  0  0  0  0
 11 12  2  0  0  0  0
 11 33  1  0  0  0  0
 12 13  1  0  0  0  0
 12 34  1  0  0  0  0
 13 14  2  0  0  0  0
 13 35  1  0  0  0  0
 14 36  1  0  0  0  0
 15 16  2  0  0  0  0
 16 37  1  0  0  0  0
 17 18  2  0  0  0  0
 17 26  1  0  0  0  0
 18 19  1  0  0  0  0
 18 38  1  0  0  0  0
 19 20  2  0  0  0  0
 19 24  1  0  0  0  0
 20 21  1  0  0  0  0
 20 39  1  0  0  0  0
 21 22  2  0  0  0  0
 21 40  1  0  0  0  0
 22 23  1  0  0  0  0
 22 41  1  0  0  0  0
 23 24  2  0  0  0  0
 23 42  1  0  0  0  0
 24 25  1  0  0  0  0
 25 26  2  0  0  0  0
 26 27  1  0  0  0  0
 27 28  1  0  0  0  0
 27 29  1  0  0  0  0
 27 43  1  0  0  0  0
M  END
$$$$
