
 OpenBabel01122422383D

 48 51  0  0  0  0  0  0  0  0999 V2000
    2.8927    0.4211    1.0759 O   0  0  0  0  0  0  0  0  0  0  0  0
    2.3278   -0.1253    0.1359 C   0  0  0  0  0  0  0  0  0  0  0  0
    0.9802    0.0015   -0.1247 N   0  0  0  0  0  0  0  0  0  0  0  0
    0.1221    0.8801    0.6417 C   0  0  0  0  0  0  0  0  0  0  0  0
    0.0623    2.2753    0.0648 C   0  0  0  0  0  0  0  0  0  0  0  0
    0.9651    3.2444    0.4933 C   0  0  0  0  0  0  0  0  0  0  0  0
    0.8961    4.5256   -0.0486 C   0  0  0  0  0  0  0  0  0  0  0  0
   -0.0693    4.8001   -1.0146 C   0  0  0  0  0  0  0  0  0  0  0  0
   -0.9204    3.7792   -1.3974 C   0  0  0  0  0  0  0  0  0  0  0  0
   -0.8808    2.5270   -0.8795 N   0  0  0  0  0  0  0  0  0  0  0  0
    3.0922   -1.0083   -0.7871 C   0  0  0  0  0  0  0  0  0  0  0  0
    2.7294   -1.1104   -2.1332 C   0  0  0  0  0  0  0  0  0  0  0  0
    3.4267   -1.9384   -3.0165 C   0  0  0  0  0  0  0  0  0  0  0  0
    3.0893   -2.0531   -4.3842 N   0  0  0  0  0  0  0  0  0  0  0  0
    2.0416   -1.4031   -5.0237 C   0  0  0  0  0  0  0  0  0  0  0  0
    1.2708   -0.6160   -4.4857 O   0  0  0  0  0  0  0  0  0  0  0  0
    1.8768   -1.7497   -6.4368 C   0  0  0  0  0  0  0  0  0  0  0  0
    2.9183   -2.1536   -7.1866 N   0  0  0  0  0  0  0  0  0  0  0  0
    2.4267   -2.2639   -8.4757 O   0  0  0  0  0  0  0  0  0  0  0  0
    1.1003   -1.9844   -8.4852 C   0  0  0  0  0  0  0  0  0  0  0  0
    0.6761   -1.6824   -7.2142 C   0  0  0  0  0  0  0  0  0  0  0  0
   -0.6915   -1.3514   -6.8380 C   0  0  0  0  0  0  0  0  0  0  0  0
   -1.1885   -1.7317   -5.5811 C   0  0  0  0  0  0  0  0  0  0  0  0
   -2.4341   -1.2885   -5.1342 C   0  0  0  0  0  0  0  0  0  0  0  0
   -3.2246   -0.4988   -5.9619 C   0  0  0  0  0  0  0  0  0  0  0  0
   -2.7785   -0.1740   -7.2401 C   0  0  0  0  0  0  0  0  0  0  0  0
   -1.5194   -0.5984   -7.6805 C   0  0  0  0  0  0  0  0  0  0  0  0
    4.5087   -2.6765   -2.5256 C   0  0  0  0  0  0  0  0  0  0  0  0
    4.8953   -2.5624   -1.1828 C   0  0  0  0  0  0  0  0  0  0  0  0
    4.1949   -1.7206   -0.3158 C   0  0  0  0  0  0  0  0  0  0  0  0
    0.5608   -0.4299   -0.9369 H   0  0  0  0  0  0  0  0  0  0  0  0
    0.4532    0.9068    1.6841 H   0  0  0  0  0  0  0  0  0  0  0  0
   -0.8807    0.4374    0.6249 H   0  0  0  0  0  0  0  0  0  0  0  0
    1.7246    3.0031    1.2367 H   0  0  0  0  0  0  0  0  0  0  0  0
    1.5851    5.2930    0.2755 H   0  0  0  0  0  0  0  0  0  0  0  0
   -0.1472    5.7832   -1.4586 H   0  0  0  0  0  0  0  0  0  0  0  0
   -1.6831    3.9434   -2.1500 H   0  0  0  0  0  0  0  0  0  0  0  0
    1.9115   -0.4926   -2.4766 H   0  0  0  0  0  0  0  0  0  0  0  0
    3.6556   -2.6581   -4.9705 H   0  0  0  0  0  0  0  0  0  0  0  0
    0.6204   -2.0529   -9.4506 H   0  0  0  0  0  0  0  0  0  0  0  0
   -0.5952   -2.3415   -4.9040 H   0  0  0  0  0  0  0  0  0  0  0  0
   -2.7691   -1.5396   -4.1309 H   0  0  0  0  0  0  0  0  0  0  0  0
   -4.1820   -0.1297   -5.6033 H   0  0  0  0  0  0  0  0  0  0  0  0
   -3.4007    0.4373   -7.8892 H   0  0  0  0  0  0  0  0  0  0  0  0
   -1.1871   -0.2950   -8.6696 H   0  0  0  0  0  0  0  0  0  0  0  0
    5.0743   -3.3392   -3.1759 H   0  0  0  0  0  0  0  0  0  0  0  0
    5.7487   -3.1259   -0.8124 H   0  0  0  0  0  0  0  0  0  0  0  0
    4.5029   -1.6247    0.7235 H   0  0  0  0  0  0  0  0  0  0  0  0
  1  2  2  0  0  0  0
  2  3  1  0  0  0  0
  2 11  1  0  0  0  0
  3  4  1  0  0  0  0
  3 31  1  0  0  0  0
  4  5  1  0  0  0  0
  4 32  1  0  0  0  0
  4 33  1  0  0  0  0
  5  6  2  0  0  0  0
  5 10  1  0  0  0  0
  6  7  1  0  0  0  0
  6 34  1  0  0  0  0
  7  8  2  0  0  0  0
  7 35  1  0  0  0  0
  8  9  1  0  0  0  0
  8 36  1  0  0  0  0
  9 10  2  0  0  0  0
  9 37  1  0  0  0  0
 11 12  2  0  0  0  0
 11 30  1  0  0  0  0
 12 13  1  0  0  0  0
 12 38  1  0  0  0  0
 13 14  1  0  0  0  0
 13 28  2  0  0  0  0
 14 15  1  0  0  0  0
 14 39  1  0  0  0  0
 15 16  2  0  0  0  0
 15 17  1  0  0  0  0
 17 18  2  0  0  0  0
 17 21  1  0  0  0  0
 18 19  1  0  0  0  0
 19 20  1  0  0  0  0
 20 21  2  0  0  0  0
 20 40  1  0  0  0  0
 21 22  1  0  0  0  0
 22 23  2  0  0  0  0
 22 27  1  0  0  0  0
 23 24  1  0  0  0  0
 23 41  1  0  0  0  0
 24 25  2  0  0  0  0
 24 42  1  0  0  0  0
 25 26  1  0  0  0  0
 25 43  1  0  0  0  0
 26 27  2  0  0  0  0
 26 44  1  0  0  0  0
 27 45  1  0  0  0  0
 28 29  1  0  0  0  0
 28 46  1  0  0  0  0
 29 30  2  0  0  0  0
 29 47  1  0  0  0  0
 30 48  1  0  0  0  0
M  END
$$$$
