
 OpenBabel01122422383D

 40 43  0  0  0  0  0  0  0  0999 V2000
    5.2797    1.7305    0.7622 O   0  0  0  0  0  0  0  0  0  0  0  0
    4.4732    0.8250    0.5575 C   0  0  0  0  0  0  0  0  0  0  0  0
    3.1324    0.8734    0.8875 N   0  0  0  0  0  0  0  0  0  0  0  0
    2.4944    1.9555    1.4608 C   0  0  0  0  0  0  0  0  0  0  0  0
    2.9366    3.2270    1.4173 C   0  0  0  0  0  0  0  0  0  0  0  0
    2.2615    4.3190    2.0912 C   0  0  0  0  0  0  0  0  0  0  0  0
    2.7628    5.6994    2.0260 C   0  0  0  0  0  0  0  0  0  0  0  0
    3.6853    6.1704    2.9605 C   0  0  0  0  0  0  0  0  0  0  0  0
    4.1523    7.4669    2.8212 C   0  0  0  0  0  0  0  0  0  0  0  0
    3.7699    8.3014    1.8303 N   0  0  0  0  0  0  0  0  0  0  0  0
    2.8893    7.8146    0.9303 C   0  0  0  0  0  0  0  0  0  0  0  0
    2.3633    6.5356    0.9830 C   0  0  0  0  0  0  0  0  0  0  0  0
    1.1475    4.0528    2.7948 C   0  0  0  0  0  0  0  0  0  0  0  0
    0.6453    2.7786    2.8478 N   0  0  0  0  0  0  0  0  0  0  0  0
    1.2069    1.6988    2.1963 C   0  0  0  0  0  0  0  0  0  0  0  0
    0.7034    0.5779    2.2287 O   0  0  0  0  0  0  0  0  0  0  0  0
    4.9679   -0.4361   -0.0668 C   0  0  0  0  0  0  0  0  0  0  0  0
    4.0568   -1.3844   -0.4150 N   0  0  0  0  0  0  0  0  0  0  0  0
    4.5198   -2.4608   -1.0841 C   0  0  0  0  0  0  0  0  0  0  0  0
    3.6664   -3.5127   -1.3821 C   0  0  0  0  0  0  0  0  0  0  0  0
    4.1227   -4.6347   -2.0735 C   0  0  0  0  0  0  0  0  0  0  0  0
    3.3011   -5.6770   -2.2496 F   0  0  0  0  0  0  0  0  0  0  0  0
    5.4156   -4.7048   -2.5617 C   0  0  0  0  0  0  0  0  0  0  0  0
    6.2851   -3.6747   -2.2554 C   0  0  0  0  0  0  0  0  0  0  0  0
    7.5481   -3.7406   -2.7045 F   0  0  0  0  0  0  0  0  0  0  0  0
    5.8737   -2.5860   -1.4749 C   0  0  0  0  0  0  0  0  0  0  0  0
    6.7866   -1.6242   -1.0380 C   0  0  0  0  0  0  0  0  0  0  0  0
    6.3322   -0.5435   -0.3041 C   0  0  0  0  0  0  0  0  0  0  0  0
    2.6070   -0.0011    0.8456 H   0  0  0  0  0  0  0  0  0  0  0  0
    3.8379    3.4952    0.8745 H   0  0  0  0  0  0  0  0  0  0  0  0
    4.0460    5.5441    3.7695 H   0  0  0  0  0  0  0  0  0  0  0  0
    4.8735    7.8809    3.5204 H   0  0  0  0  0  0  0  0  0  0  0  0
    2.6122    8.5002    0.1348 H   0  0  0  0  0  0  0  0  0  0  0  0
    1.6699    6.1974    0.2208 H   0  0  0  0  0  0  0  0  0  0  0  0
    0.5971    4.8078    3.3438 H   0  0  0  0  0  0  0  0  0  0  0  0
   -0.2021    2.5810    3.3681 H   0  0  0  0  0  0  0  0  0  0  0  0
    2.6339   -3.4831   -1.0466 H   0  0  0  0  0  0  0  0  0  0  0  0
    5.7502   -5.5567   -3.1412 H   0  0  0  0  0  0  0  0  0  0  0  0
    7.8492   -1.7231   -1.2487 H   0  0  0  0  0  0  0  0  0  0  0  0
    7.0251    0.2106    0.0565 H   0  0  0  0  0  0  0  0  0  0  0  0
  1  2  2  0  0  0  0
  2  3  1  0  0  0  0
  2 17  1  0  0  0  0
  3  4  1  0  0  0  0
  3 29  1  0  0  0  0
  4  5  2  0  0  0  0
  4 15  1  0  0  0  0
  5  6  1  0  0  0  0
  5 30  1  0  0  0  0
  6  7  1  0  0  0  0
  6 13  2  0  0  0  0
  7  8  2  0  0  0  0
  7 12  1  0  0  0  0
  8  9  1  0  0  0  0
  8 31  1  0  0  0  0
  9 10  2  0  0  0  0
  9 32  1  0  0  0  0
 10 11  1  0  0  0  0
 11 12  2  0  0  0  0
 11 33  1  0  0  0  0
 12 34  1  0  0  0  0
 13 14  1  0  0  0  0
 13 35  1  0  0  0  0
 14 15  1  0  0  0  0
 14 36  1  0  0  0  0
 15 16  2  0  0  0  0
 17 18  2  0  0  0  0
 17 28  1  0  0  0  0
 18 19  1  0  0  0  0
 19 20  2  0  0  0  0
 19 26  1  0  0  0  0
 20 21  1  0  0  0  0
 20 37  1  0  0  0  0
 21 22  1  0  0  0  0
 21 23  2  0  0  0  0
 23 24  1  0  0  0  0
 23 38  1  0  0  0  0
 24 25  1  0  0  0  0
 24 26  2  0  0  0  0
 26 27  1  0  0  0  0
 27 28  2  0  0  0  0
 27 39  1  0  0  0  0
 28 40  1  0  0  0  0
M  END
$$$$
