
 OpenBabel01122422353D

 49 52  0  0  0  0  0  0  0  0999 V2000
    4.2566   -1.0341   -0.7478 O   0  0  0  0  0  0  0  0  0  0  0  0
    3.2052   -0.5898   -1.2111 C   0  0  0  0  0  0  0  0  0  0  0  0
    2.8678    0.8980   -1.0439 C   0  0  0  0  0  0  0  0  0  0  0  0
    1.8939    1.5176   -1.9647 N   0  0  0  0  0  0  0  0  0  0  0  0
    0.5462    1.6676   -1.5531 C   0  0  0  0  0  0  0  0  0  0  0  0
    0.1477    1.2342   -0.4765 O   0  0  0  0  0  0  0  0  0  0  0  0
   -0.3620    2.3419   -2.4761 C   0  0  0  0  0  0  0  0  0  0  0  0
   -0.2243    2.4156   -3.7846 N   0  0  0  0  0  0  0  0  0  0  0  0
   -1.2782    3.1299   -4.2950 N   0  0  0  0  0  0  0  0  0  0  0  0
   -2.0854    3.4620   -3.3065 C   0  0  0  0  0  0  0  0  0  0  0  0
   -3.3760    4.1422   -3.4178 C   0  0  0  0  0  0  0  0  0  0  0  0
   -3.8656    4.5014   -4.6884 C   0  0  0  0  0  0  0  0  0  0  0  0
   -5.1275    5.0840   -4.8352 C   0  0  0  0  0  0  0  0  0  0  0  0
   -5.9161    5.3298   -3.7143 C   0  0  0  0  0  0  0  0  0  0  0  0
   -5.4333    5.0058   -2.4483 C   0  0  0  0  0  0  0  0  0  0  0  0
   -4.1736    4.4221   -2.3008 C   0  0  0  0  0  0  0  0  0  0  0  0
   -1.5203    2.9964   -2.1374 N   0  0  0  0  0  0  0  0  0  0  0  0
    2.4721    2.4490   -2.8801 C   0  0  0  0  0  0  0  0  0  0  0  0
    2.4080    3.8335   -2.6475 C   0  0  0  0  0  0  0  0  0  0  0  0
    2.9322    4.7258   -3.5838 C   0  0  0  0  0  0  0  0  0  0  0  0
    3.5250    4.2419   -4.7486 C   0  0  0  0  0  0  0  0  0  0  0  0
    3.6016    2.8670   -4.9742 C   0  0  0  0  0  0  0  0  0  0  0  0
    3.0867    1.9684   -4.0372 C   0  0  0  0  0  0  0  0  0  0  0  0
    2.2424   -1.3639   -1.8360 N   0  0  0  0  0  0  0  0  0  0  0  0
    2.4581   -2.7436   -2.0622 C   0  0  0  0  0  0  0  0  0  0  0  0
    2.8522   -3.6280   -1.0544 C   0  0  0  0  0  0  0  0  0  0  0  0
    3.1708   -4.9544   -1.3702 C   0  0  0  0  0  0  0  0  0  0  0  0
    3.1005   -5.3933   -2.6914 C   0  0  0  0  0  0  0  0  0  0  0  0
    2.6625   -4.5218   -3.6876 C   0  0  0  0  0  0  0  0  0  0  0  0
    2.3129   -3.2057   -3.3690 C   0  0  0  0  0  0  0  0  0  0  0  0
    3.8238    1.4314   -1.1392 H   0  0  0  0  0  0  0  0  0  0  0  0
    2.5315    1.0294   -0.0095 H   0  0  0  0  0  0  0  0  0  0  0  0
   -3.2685    4.3089   -5.5779 H   0  0  0  0  0  0  0  0  0  0  0  0
   -5.4952    5.3373   -5.8258 H   0  0  0  0  0  0  0  0  0  0  0  0
   -6.9042    5.7649   -3.8270 H   0  0  0  0  0  0  0  0  0  0  0  0
   -6.0488    5.1942   -1.5699 H   0  0  0  0  0  0  0  0  0  0  0  0
   -3.8414    4.1778   -1.2976 H   0  0  0  0  0  0  0  0  0  0  0  0
   -1.8840    3.1077   -1.2051 H   0  0  0  0  0  0  0  0  0  0  0  0
    1.9483    4.2308   -1.7468 H   0  0  0  0  0  0  0  0  0  0  0  0
    2.8666    5.7972   -3.4142 H   0  0  0  0  0  0  0  0  0  0  0  0
    3.9185    4.9358   -5.4869 H   0  0  0  0  0  0  0  0  0  0  0  0
    4.0448    2.4943   -5.8939 H   0  0  0  0  0  0  0  0  0  0  0  0
    3.1167    0.9046   -4.2486 H   0  0  0  0  0  0  0  0  0  0  0  0
    1.7168   -0.8666   -2.5446 H   0  0  0  0  0  0  0  0  0  0  0  0
    2.9174   -3.3047   -0.0170 H   0  0  0  0  0  0  0  0  0  0  0  0
    3.4953   -5.6409   -0.5887 H   0  0  0  0  0  0  0  0  0  0  0  0
    3.3935   -6.4082   -2.9477 H   0  0  0  0  0  0  0  0  0  0  0  0
    2.6162   -4.8559   -4.7212 H   0  0  0  0  0  0  0  0  0  0  0  0
    2.0106   -2.5355   -4.1647 H   0  0  0  0  0  0  0  0  0  0  0  0
  1  2  2  0  0  0  0
  2  3  1  0  0  0  0
  2 24  1  0  0  0  0
  3  4  1  0  0  0  0
  3 31  1  0  0  0  0
  3 32  1  0  0  0  0
  4  5  1  0  0  0  0
  4 18  1  0  0  0  0
  5  6  2  0  0  0  0
  5  7  1  0  0  0  0
  7  8  2  0  0  0  0
  7 17  1  0  0  0  0
  8  9  1  0  0  0  0
  9 10  2  0  0  0  0
 10 11  1  0  0  0  0
 10 17  1  0  0  0  0
 11 12  2  0  0  0  0
 11 16  1  0  0  0  0
 12 13  1  0  0  0  0
 12 33  1  0  0  0  0
 13 14  2  0  0  0  0
 13 34  1  0  0  0  0
 14 15  1  0  0  0  0
 14 35  1  0  0  0  0
 15 16  2  0  0  0  0
 15 36  1  0  0  0  0
 16 37  1  0  0  0  0
 17 38  1  0  0  0  0
 18 19  2  0  0  0  0
 18 23  1  0  0  0  0
 19 20  1  0  0  0  0
 19 39  1  0  0  0  0
 20 21  2  0  0  0  0
 20 40  1  0  0  0  0
 21 22  1  0  0  0  0
 21 41  1  0  0  0  0
 22 23  2  0  0  0  0
 22 42  1  0  0  0  0
 23 43  1  0  0  0  0
 24 25  1  0  0  0  0
 24 44  1  0  0  0  0
 25 26  2  0  0  0  0
 25 30  1  0  0  0  0
 26 27  1  0  0  0  0
 26 45  1  0  0  0  0
 27 28  2  0  0  0  0
 27 46  1  0  0  0  0
 28 29  1  0  0  0  0
 28 47  1  0  0  0  0
 29 30  2  0  0  0  0
 29 48  1  0  0  0  0
 30 49  1  0  0  0  0
M  END
$$$$
