
 OpenBabel01122422383D

 45 48  0  0  0  0  0  0  0  0999 V2000
    4.1148    1.3365   -0.0081 O   0  0  0  0  0  0  0  0  0  0  0  0
    3.8223    0.8874   -1.1168 C   0  0  0  0  0  0  0  0  0  0  0  0
    2.9200   -0.1743   -1.1691 N   0  0  0  0  0  0  0  0  0  0  0  0
    2.1201   -0.5010   -2.2933 C   0  0  0  0  0  0  0  0  0  0  0  0
    0.9137    0.1906   -2.4959 C   0  0  0  0  0  0  0  0  0  0  0  0
    0.4977    1.0859   -1.5873 F   0  0  0  0  0  0  0  0  0  0  0  0
    0.2368    0.1193   -3.7123 C   0  0  0  0  0  0  0  0  0  0  0  0
    0.7343   -0.6903   -4.7273 C   0  0  0  0  0  0  0  0  0  0  0  0
    1.8795   -1.4551   -4.5026 C   0  0  0  0  0  0  0  0  0  0  0  0
    2.5601   -1.4022   -3.2733 C   0  0  0  0  0  0  0  0  0  0  0  0
    3.6393   -2.2065   -2.9783 O   0  0  0  0  0  0  0  0  0  0  0  0
    3.6561   -3.4289   -3.7277 C   0  0  0  0  0  0  0  0  0  0  0  0
    4.4303   -4.5398   -3.0658 C   0  0  0  0  0  0  0  0  0  0  0  0
    3.9619   -5.8594   -3.1994 C   0  0  0  0  0  0  0  0  0  0  0  0
    4.6897   -6.9299   -2.6875 C   0  0  0  0  0  0  0  0  0  0  0  0
    5.8999   -6.6954   -2.0429 C   0  0  0  0  0  0  0  0  0  0  0  0
    6.3777   -5.3913   -1.9062 C   0  0  0  0  0  0  0  0  0  0  0  0
    5.6481   -4.3153   -2.4171 C   0  0  0  0  0  0  0  0  0  0  0  0
    4.4021    1.4761   -2.3744 C   0  0  0  0  0  0  0  0  0  0  0  0
    3.5766    1.8274   -3.3793 C   0  0  0  0  0  0  0  0  0  0  0  0
    4.0140    2.2383   -4.6058 N   0  0  0  0  0  0  0  0  0  0  0  0
    5.3304    2.4315   -4.9178 C   0  0  0  0  0  0  0  0  0  0  0  0
    5.6940    2.7132   -6.0563 O   0  0  0  0  0  0  0  0  0  0  0  0
    6.2687    2.3344   -3.7897 C   0  0  0  0  0  0  0  0  0  0  0  0
    7.5779    2.7835   -3.9429 C   0  0  0  0  0  0  0  0  0  0  0  0
    8.4152    2.7864   -2.8386 C   0  0  0  0  0  0  0  0  0  0  0  0
    7.9053    2.3242   -1.6346 C   0  0  0  0  0  0  0  0  0  0  0  0
    6.6430    1.8527   -1.4690 N   0  0  0  0  0  0  0  0  0  0  0  0
    5.8187    1.8712   -2.5440 C   0  0  0  0  0  0  0  0  0  0  0  0
    2.4334   -0.1927   -0.2772 H   0  0  0  0  0  0  0  0  0  0  0  0
   -0.6330    0.7465   -3.8855 H   0  0  0  0  0  0  0  0  0  0  0  0
    0.2406   -0.7287   -5.6960 H   0  0  0  0  0  0  0  0  0  0  0  0
    2.2325   -2.0787   -5.3198 H   0  0  0  0  0  0  0  0  0  0  0  0
    4.1105   -3.2388   -4.7075 H   0  0  0  0  0  0  0  0  0  0  0  0
    2.6305   -3.7977   -3.8636 H   0  0  0  0  0  0  0  0  0  0  0  0
    3.0239   -6.0607   -3.7149 H   0  0  0  0  0  0  0  0  0  0  0  0
    4.3151   -7.9439   -2.8006 H   0  0  0  0  0  0  0  0  0  0  0  0
    6.4743   -7.5303   -1.6503 H   0  0  0  0  0  0  0  0  0  0  0  0
    7.3260   -5.2126   -1.4060 H   0  0  0  0  0  0  0  0  0  0  0  0
    6.0380   -3.3047   -2.3137 H   0  0  0  0  0  0  0  0  0  0  0  0
    2.5063    1.7828   -3.3103 H   0  0  0  0  0  0  0  0  0  0  0  0
    3.3533    2.3467   -5.3663 H   0  0  0  0  0  0  0  0  0  0  0  0
    7.9225    3.1555   -4.9043 H   0  0  0  0  0  0  0  0  0  0  0  0
    9.4329    3.1531   -2.9131 H   0  0  0  0  0  0  0  0  0  0  0  0
    8.5175    2.3297   -0.7358 H   0  0  0  0  0  0  0  0  0  0  0  0
  1  2  2  0  0  0  0
  2  3  1  0  0  0  0
  2 19  1  0  0  0  0
  3  4  1  0  0  0  0
  3 30  1  0  0  0  0
  4  5  2  0  0  0  0
  4 10  1  0  0  0  0
  5  6  1  0  0  0  0
  5  7  1  0  0  0  0
  7  8  2  0  0  0  0
  7 31  1  0  0  0  0
  8  9  1  0  0  0  0
  8 32  1  0  0  0  0
  9 10  2  0  0  0  0
  9 33  1  0  0  0  0
 10 11  1  0  0  0  0
 11 12  1  0  0  0  0
 12 13  1  0  0  0  0
 12 34  1  0  0  0  0
 12 35  1  0  0  0  0
 13 14  2  0  0  0  0
 13 18  1  0  0  0  0
 14 15  1  0  0  0  0
 14 36  1  0  0  0  0
 15 16  2  0  0  0  0
 15 37  1  0  0  0  0
 16 17  1  0  0  0  0
 16 38  1  0  0  0  0
 17 18  2  0  0  0  0
 17 39  1  0  0  0  0
 18 40  1  0  0  0  0
 19 20  2  0  0  0  0
 19 29  1  0  0  0  0
 20 21  1  0  0  0  0
 20 41  1  0  0  0  0
 21 22  1  0  0  0  0
 21 42  1  0  0  0  0
 22 23  2  0  0  0  0
 22 24  1  0  0  0  0
 24 25  2  0  0  0  0
 24 29  1  0  0  0  0
 25 26  1  0  0  0  0
 25 43  1  0  0  0  0
 26 27  2  0  0  0  0
 26 44  1  0  0  0  0
 27 28  1  0  0  0  0
 27 45  1  0  0  0  0
 28 29  2  0  0  0  0
M  END
$$$$
