
 OpenBabel01122422383D

 49 52  0  0  0  0  0  0  0  0999 V2000
    2.2206    0.9045    0.8067 O   0  0  0  0  0  0  0  0  0  0  0  0
    2.3096    0.0197   -0.0366 C   0  0  0  0  0  0  0  0  0  0  0  0
    1.6769    0.1469   -1.2418 N   0  0  0  0  0  0  0  0  0  0  0  0
    0.8849    1.3234   -1.5748 C   0  0  0  0  0  0  0  0  0  0  0  0
    1.7458    2.4122   -2.2055 C   0  0  0  0  0  0  0  0  0  0  0  0
    0.9441    3.6096   -2.5342 C   0  0  0  0  0  0  0  0  0  0  0  0
    0.2927    3.9018   -3.6358 N   0  0  0  0  0  0  0  0  0  0  0  0
   -0.2206    5.1525   -3.3518 C   0  0  0  0  0  0  0  0  0  0  0  0
   -1.0489    5.9392   -4.3100 C   0  0  0  0  0  0  0  0  0  0  0  0
   -0.3788    6.1900   -5.4711 F   0  0  0  0  0  0  0  0  0  0  0  0
   -2.1824    5.2696   -4.6660 F   0  0  0  0  0  0  0  0  0  0  0  0
    0.0922    5.6107   -2.1273 N   0  0  0  0  0  0  0  0  0  0  0  0
    0.8666    4.5847   -1.5837 O   0  0  0  0  0  0  0  0  0  0  0  0
    3.1032   -1.2471    0.1753 C   0  0  0  0  0  0  0  0  0  0  0  0
    4.1052   -1.3166    1.0832 C   0  0  0  0  0  0  0  0  0  0  0  0
    4.5383   -0.1406    1.8715 C   0  0  0  0  0  0  0  0  0  0  0  0
    3.8903    0.1602    3.0812 C   0  0  0  0  0  0  0  0  0  0  0  0
    4.4240    1.1103    3.9508 C   0  0  0  0  0  0  0  0  0  0  0  0
    5.5646    1.8201    3.5846 C   0  0  0  0  0  0  0  0  0  0  0  0
    6.1546    1.6011    2.3387 C   0  0  0  0  0  0  0  0  0  0  0  0
    5.6473    0.6206    1.4812 C   0  0  0  0  0  0  0  0  0  0  0  0
    4.8027   -2.6664    1.2380 C   0  0  0  0  0  0  0  0  0  0  0  0
    5.9225   -2.8585    2.2375 C   0  0  0  0  0  0  0  0  0  0  0  0
    5.9407   -2.2580    3.4990 C   0  0  0  0  0  0  0  0  0  0  0  0
    7.0249   -2.3901    4.3669 C   0  0  0  0  0  0  0  0  0  0  0  0
    8.0687   -3.2394    4.0352 C   0  0  0  0  0  0  0  0  0  0  0  0
    8.0252   -3.9432    2.8331 C   0  0  0  0  0  0  0  0  0  0  0  0
    6.9683   -3.7420    1.9323 C   0  0  0  0  0  0  0  0  0  0  0  0
    4.4971   -3.7068    0.5217 N   0  0  0  0  0  0  0  0  0  0  0  0
    3.5076   -3.5838   -0.3859 N   0  0  0  0  0  0  0  0  0  0  0  0
    2.7859   -2.4501   -0.6366 C   0  0  0  0  0  0  0  0  0  0  0  0
    1.9289   -2.4420   -1.5259 O   0  0  0  0  0  0  0  0  0  0  0  0
    1.6752   -0.6408   -1.8936 H   0  0  0  0  0  0  0  0  0  0  0  0
    0.4007    1.6970   -0.6639 H   0  0  0  0  0  0  0  0  0  0  0  0
    0.0914    1.0015   -2.2581 H   0  0  0  0  0  0  0  0  0  0  0  0
    2.2078    2.0265   -3.1224 H   0  0  0  0  0  0  0  0  0  0  0  0
    2.5699    2.6860   -1.5360 H   0  0  0  0  0  0  0  0  0  0  0  0
   -1.3502    6.9015   -3.8859 H   0  0  0  0  0  0  0  0  0  0  0  0
    3.0128   -0.4065    3.3871 H   0  0  0  0  0  0  0  0  0  0  0  0
    3.9664    1.2698    4.9234 H   0  0  0  0  0  0  0  0  0  0  0  0
    5.9937    2.5450    4.2714 H   0  0  0  0  0  0  0  0  0  0  0  0
    7.0289    2.1783    2.0484 H   0  0  0  0  0  0  0  0  0  0  0  0
    6.1428    0.4413    0.5303 H   0  0  0  0  0  0  0  0  0  0  0  0
    5.1036   -1.6891    3.8652 H   0  0  0  0  0  0  0  0  0  0  0  0
    7.0301   -1.8410    5.3045 H   0  0  0  0  0  0  0  0  0  0  0  0
    8.8981   -3.3708    4.7257 H   0  0  0  0  0  0  0  0  0  0  0  0
    8.8155   -4.6504    2.5980 H   0  0  0  0  0  0  0  0  0  0  0  0
    6.9673   -4.2985    0.9965 H   0  0  0  0  0  0  0  0  0  0  0  0
    3.2872   -4.4086   -0.9371 H   0  0  0  0  0  0  0  0  0  0  0  0
  1  2  2  0  0  0  0
  2  3  1  0  0  0  0
  2 14  1  0  0  0  0
  3  4  1  0  0  0  0
  3 33  1  0  0  0  0
  4  5  1  0  0  0  0
  4 34  1  0  0  0  0
  4 35  1  0  0  0  0
  5  6  1  0  0  0  0
  5 36  1  0  0  0  0
  5 37  1  0  0  0  0
  6  7  2  0  0  0  0
  6 13  1  0  0  0  0
  7  8  1  0  0  0  0
  8  9  1  0  0  0  0
  8 12  2  0  0  0  0
  9 10  1  0  0  0  0
  9 11  1  0  0  0  0
  9 38  1  0  0  0  0
 12 13  1  0  0  0  0
 14 15  2  0  0  0  0
 14 31  1  0  0  0  0
 15 16  1  0  0  0  0
 15 22  1  0  0  0  0
 16 17  2  0  0  0  0
 16 21  1  0  0  0  0
 17 18  1  0  0  0  0
 17 39  1  0  0  0  0
 18 19  2  0  0  0  0
 18 40  1  0  0  0  0
 19 20  1  0  0  0  0
 19 41  1  0  0  0  0
 20 21  2  0  0  0  0
 20 42  1  0  0  0  0
 21 43  1  0  0  0  0
 22 23  1  0  0  0  0
 22 29  2  0  0  0  0
 23 24  2  0  0  0  0
 23 28  1  0  0  0  0
 24 25  1  0  0  0  0
 24 44  1  0  0  0  0
 25 26  2  0  0  0  0
 25 45  1  0  0  0  0
 26 27  1  0  0  0  0
 26 46  1  0  0  0  0
 27 28  2  0  0  0  0
 27 47  1  0  0  0  0
 28 48  1  0  0  0  0
 29 30  1  0  0  0  0
 30 31  1  0  0  0  0
 30 49  1  0  0  0  0
 31 32  2  0  0  0  0
M  END
$$$$
