
 OpenBabel01122422383D

 43 46  0  0  0  0  0  0  0  0999 V2000
    2.7577   -0.5544   -0.8746 O   0  0  0  0  0  0  0  0  0  0  0  0
    2.1840    0.0444    0.0283 C   0  0  0  0  0  0  0  0  0  0  0  0
    0.8319    0.0274    0.3230 N   0  0  0  0  0  0  0  0  0  0  0  0
   -0.1203   -0.7079   -0.3565 C   0  0  0  0  0  0  0  0  0  0  0  0
    0.1256   -1.5441   -1.3590 N   0  0  0  0  0  0  0  0  0  0  0  0
   -1.0759   -2.0354   -1.7406 N   0  0  0  0  0  0  0  0  0  0  0  0
   -1.1686   -2.9747   -2.8018 C   0  0  0  0  0  0  0  0  0  0  0  0
   -0.0042   -3.3837   -3.4579 C   0  0  0  0  0  0  0  0  0  0  0  0
   -0.1159   -4.3006   -4.4853 C   0  0  0  0  0  0  0  0  0  0  0  0
   -1.2915   -4.8299   -4.8920 N   0  0  0  0  0  0  0  0  0  0  0  0
   -2.4001   -4.4175   -4.2459 C   0  0  0  0  0  0  0  0  0  0  0  0
   -2.3976   -3.5029   -3.2049 C   0  0  0  0  0  0  0  0  0  0  0  0
   -2.0914   -1.5110   -0.9735 C   0  0  0  0  0  0  0  0  0  0  0  0
   -1.5015   -0.6645   -0.0638 C   0  0  0  0  0  0  0  0  0  0  0  0
    3.0164    0.9164    0.9092 C   0  0  0  0  0  0  0  0  0  0  0  0
    2.6722    1.0807    2.2630 C   0  0  0  0  0  0  0  0  0  0  0  0
    3.4540    1.8909    3.0863 C   0  0  0  0  0  0  0  0  0  0  0  0
    4.5681    2.4826    2.5345 C   0  0  0  0  0  0  0  0  0  0  0  0
    4.9479    2.3092    1.2507 N   0  0  0  0  0  0  0  0  0  0  0  0
    4.1900    1.5226    0.4364 C   0  0  0  0  0  0  0  0  0  0  0  0
    4.6059    1.4359   -0.9154 N   0  0  0  0  0  0  0  0  0  0  0  0
    5.9601    1.4029   -1.3474 C   0  0  0  0  0  0  0  0  0  0  0  0
    6.3011    1.8292   -2.6377 C   0  0  0  0  0  0  0  0  0  0  0  0
    5.3621    2.3586   -3.4381 F   0  0  0  0  0  0  0  0  0  0  0  0
    7.6117    1.7258   -3.1018 C   0  0  0  0  0  0  0  0  0  0  0  0
    7.9268    2.1570   -4.3318 F   0  0  0  0  0  0  0  0  0  0  0  0
    8.6091    1.1701   -2.3075 C   0  0  0  0  0  0  0  0  0  0  0  0
    8.2919    0.7285   -1.0262 C   0  0  0  0  0  0  0  0  0  0  0  0
    6.9790    0.8433   -0.5529 C   0  0  0  0  0  0  0  0  0  0  0  0
    0.4670    0.6394    1.0363 H   0  0  0  0  0  0  0  0  0  0  0  0
    0.9767   -3.0012   -3.1839 H   0  0  0  0  0  0  0  0  0  0  0  0
    0.7619   -4.6488   -5.0236 H   0  0  0  0  0  0  0  0  0  0  0  0
   -3.3290   -4.8589   -4.5992 H   0  0  0  0  0  0  0  0  0  0  0  0
   -3.3396   -3.2353   -2.7445 H   0  0  0  0  0  0  0  0  0  0  0  0
   -3.1273   -1.7719   -1.1261 H   0  0  0  0  0  0  0  0  0  0  0  0
   -2.0105   -0.0910    0.6971 H   0  0  0  0  0  0  0  0  0  0  0  0
    1.8237    0.5674    2.7037 H   0  0  0  0  0  0  0  0  0  0  0  0
    3.2031    2.0434    4.1292 H   0  0  0  0  0  0  0  0  0  0  0  0
    5.2149    3.1287    3.1201 H   0  0  0  0  0  0  0  0  0  0  0  0
    4.0694    0.7144   -1.4170 H   0  0  0  0  0  0  0  0  0  0  0  0
    9.6203    1.0821   -2.6922 H   0  0  0  0  0  0  0  0  0  0  0  0
    9.0592    0.2894   -0.3928 H   0  0  0  0  0  0  0  0  0  0  0  0
    6.7562    0.4832    0.4489 H   0  0  0  0  0  0  0  0  0  0  0  0
  1  2  2  0  0  0  0
  2  3  1  0  0  0  0
  2 15  1  0  0  0  0
  3  4  1  0  0  0  0
  3 30  1  0  0  0  0
  4  5  2  0  0  0  0
  4 14  1  0  0  0  0
  5  6  1  0  0  0  0
  6  7  1  0  0  0  0
  6 13  1  0  0  0  0
  7  8  2  0  0  0  0
  7 12  1  0  0  0  0
  8  9  1  0  0  0  0
  8 31  1  0  0  0  0
  9 10  2  0  0  0  0
  9 32  1  0  0  0  0
 10 11  1  0  0  0  0
 11 12  2  0  0  0  0
 11 33  1  0  0  0  0
 12 34  1  0  0  0  0
 13 14  2  0  0  0  0
 13 35  1  0  0  0  0
 14 36  1  0  0  0  0
 15 16  2  0  0  0  0
 15 20  1  0  0  0  0
 16 17  1  0  0  0  0
 16 37  1  0  0  0  0
 17 18  2  0  0  0  0
 17 38  1  0  0  0  0
 18 19  1  0  0  0  0
 18 39  1  0  0  0  0
 19 20  2  0  0  0  0
 20 21  1  0  0  0  0
 21 22  1  0  0  0  0
 21 40  1  0  0  0  0
 22 23  2  0  0  0  0
 22 29  1  0  0  0  0
 23 24  1  0  0  0  0
 23 25  1  0  0  0  0
 25 26  1  0  0  0  0
 25 27  2  0  0  0  0
 27 28  1  0  0  0  0
 27 41  1  0  0  0  0
 28 29  2  0  0  0  0
 28 42  1  0  0  0  0
 29 43  1  0  0  0  0
M  END
$$$$
