
 OpenBabel01122422383D

 39 42  0  0  0  0  0  0  0  0999 V2000
    1.0347   -0.1355   -0.2729 O   0  0  0  0  0  0  0  0  0  0  0  0
    2.2476    0.0082   -0.1467 C   0  0  0  0  0  0  0  0  0  0  0  0
    2.8749    1.0854    0.4554 N   0  0  0  0  0  0  0  0  0  0  0  0
    2.1800    2.1215    1.1213 C   0  0  0  0  0  0  0  0  0  0  0  0
    0.8804    1.9572    1.6027 C   0  0  0  0  0  0  0  0  0  0  0  0
    0.1869    3.0263    2.1637 C   0  0  0  0  0  0  0  0  0  0  0  0
   -1.0823    2.8057    2.5321 F   0  0  0  0  0  0  0  0  0  0  0  0
    0.7693    4.2864    2.2497 C   0  0  0  0  0  0  0  0  0  0  0  0
    0.0262    5.3875    2.7312 N   0  0  0  0  0  0  0  0  0  0  0  0
   -1.0598    5.3571    3.5782 C   0  0  0  0  0  0  0  0  0  0  0  0
   -1.4525    6.6634    3.7414 C   0  0  0  0  0  0  0  0  0  0  0  0
   -0.6616    7.5009    3.0093 N   0  0  0  0  0  0  0  0  0  0  0  0
    0.2111    6.7155    2.4165 C   0  0  0  0  0  0  0  0  0  0  0  0
    2.0912    4.4323    1.8236 C   0  0  0  0  0  0  0  0  0  0  0  0
    2.7362    5.6012    1.9453 F   0  0  0  0  0  0  0  0  0  0  0  0
    2.8065    3.3555    1.2886 C   0  0  0  0  0  0  0  0  0  0  0  0
    3.1143   -1.0433   -0.7273 C   0  0  0  0  0  0  0  0  0  0  0  0
    4.3610   -1.3689   -0.1744 C   0  0  0  0  0  0  0  0  0  0  0  0
    5.0557   -2.4844   -0.6543 C   0  0  0  0  0  0  0  0  0  0  0  0
    4.5111   -3.2459   -1.7000 C   0  0  0  0  0  0  0  0  0  0  0  0
    5.1844   -4.3917   -2.1452 N   0  0  0  0  0  0  0  0  0  0  0  0
    6.3400   -4.8515   -1.5812 C   0  0  0  0  0  0  0  0  0  0  0  0
    6.8954   -5.8780   -1.9556 O   0  0  0  0  0  0  0  0  0  0  0  0
    6.9066   -4.0432   -0.4721 C   0  0  0  0  0  0  0  0  0  0  0  0
    6.3125   -2.9194   -0.0460 C   0  0  0  0  0  0  0  0  0  0  0  0
    3.2882   -2.8940   -2.2624 C   0  0  0  0  0  0  0  0  0  0  0  0
    2.7615   -3.6348   -3.2480 F   0  0  0  0  0  0  0  0  0  0  0  0
    2.5818   -1.8068   -1.7770 C   0  0  0  0  0  0  0  0  0  0  0  0
    3.8524    1.2461    0.2445 H   0  0  0  0  0  0  0  0  0  0  0  0
    0.3571    1.0073    1.5471 H   0  0  0  0  0  0  0  0  0  0  0  0
   -1.4377    4.4457    4.0184 H   0  0  0  0  0  0  0  0  0  0  0  0
   -2.2628    7.0385    4.3528 H   0  0  0  0  0  0  0  0  0  0  0  0
    0.9619    7.0540    1.7147 H   0  0  0  0  0  0  0  0  0  0  0  0
    3.8323    3.5223    0.9729 H   0  0  0  0  0  0  0  0  0  0  0  0
    4.7581   -0.8105    0.6685 H   0  0  0  0  0  0  0  0  0  0  0  0
    4.7812   -4.9496   -2.8893 H   0  0  0  0  0  0  0  0  0  0  0  0
    7.8177   -4.4216   -0.0282 H   0  0  0  0  0  0  0  0  0  0  0  0
    6.7373   -2.3418    0.7678 H   0  0  0  0  0  0  0  0  0  0  0  0
    1.6011   -1.5823   -2.1914 H   0  0  0  0  0  0  0  0  0  0  0  0
  1  2  2  0  0  0  0
  2  3  1  0  0  0  0
  2 17  1  0  0  0  0
  3  4  1  0  0  0  0
  3 29  1  0  0  0  0
  4  5  2  0  0  0  0
  4 16  1  0  0  0  0
  5  6  1  0  0  0  0
  5 30  1  0  0  0  0
  6  7  1  0  0  0  0
  6  8  2  0  0  0  0
  8  9  1  0  0  0  0
  8 14  1  0  0  0  0
  9 10  1  0  0  0  0
  9 13  1  0  0  0  0
 10 11  2  0  0  0  0
 10 31  1  0  0  0  0
 11 12  1  0  0  0  0
 11 32  1  0  0  0  0
 12 13  2  0  0  0  0
 13 33  1  0  0  0  0
 14 15  1  0  0  0  0
 14 16  2  0  0  0  0
 16 34  1  0  0  0  0
 17 18  2  0  0  0  0
 17 28  1  0  0  0  0
 18 19  1  0  0  0  0
 18 35  1  0  0  0  0
 19 20  2  0  0  0  0
 19 25  1  0  0  0  0
 20 21  1  0  0  0  0
 20 26  1  0  0  0  0
 21 22  1  0  0  0  0
 21 36  1  0  0  0  0
 22 23  2  0  0  0  0
 22 24  1  0  0  0  0
 24 25  2  0  0  0  0
 24 37  1  0  0  0  0
 25 38  1  0  0  0  0
 26 27  1  0  0  0  0
 26 28  2  0  0  0  0
 28 39  1  0  0  0  0
M  END
$$$$
