
 OpenBabel01122422383D

 45 48  0  0  0  0  0  0  0  0999 V2000
   -1.6262   -1.7742    2.8263 N   0  0  0  0  0  0  0  0  0  0  0  0
   -0.8247   -1.1590    2.2500 C   0  0  0  0  0  0  0  0  0  0  0  0
    0.1696   -0.4129    1.5382 C   0  0  0  0  0  0  0  0  0  0  0  0
   -0.2022    0.6544    0.7153 C   0  0  0  0  0  0  0  0  0  0  0  0
    0.7696    1.3809    0.0167 C   0  0  0  0  0  0  0  0  0  0  0  0
    2.1309    1.0601    0.1391 C   0  0  0  0  0  0  0  0  0  0  0  0
    3.1955    1.8082   -0.6312 C   0  0  0  0  0  0  0  0  0  0  0  0
    3.2344    3.3036   -0.3491 C   0  0  0  0  0  0  0  0  0  0  0  0
    2.2382    4.0020   -0.5259 O   0  0  0  0  0  0  0  0  0  0  0  0
    4.4887    3.7955   -0.0181 N   0  0  0  0  0  0  0  0  0  0  0  0
    4.5975    5.1578    0.2023 C   0  0  0  0  0  0  0  0  0  0  0  0
    3.8057    5.8527    0.9807 N   0  0  0  0  0  0  0  0  0  0  0  0
    4.3434    7.1199    0.9837 C   0  0  0  0  0  0  0  0  0  0  0  0
    3.6781    8.2064    1.7248 C   0  0  0  0  0  0  0  0  0  0  0  0
    2.6111    7.9001    2.5738 C   0  0  0  0  0  0  0  0  0  0  0  0
    1.9649    8.9264    3.2577 C   0  0  0  0  0  0  0  0  0  0  0  0
    2.3897   10.2336    3.0695 C   0  0  0  0  0  0  0  0  0  0  0  0
    3.4494   10.4587    2.2043 C   0  0  0  0  0  0  0  0  0  0  0  0
    4.1052    9.4825    1.5346 N   0  0  0  0  0  0  0  0  0  0  0  0
    5.4869    7.2173    0.2814 N   0  0  0  0  0  0  0  0  0  0  0  0
    5.5764    6.0009   -0.3172 N   0  0  0  0  0  0  0  0  0  0  0  0
    6.4846    5.7722   -1.3904 C   0  0  0  0  0  0  0  0  0  0  0  0
    7.6120    6.5925   -1.5375 C   0  0  0  0  0  0  0  0  0  0  0  0
    8.5111    6.3661   -2.5854 C   0  0  0  0  0  0  0  0  0  0  0  0
    8.2753    5.3472   -3.5078 C   0  0  0  0  0  0  0  0  0  0  0  0
    7.1343    4.5585   -3.3941 C   0  0  0  0  0  0  0  0  0  0  0  0
    6.2399    4.7699   -2.3426 C   0  0  0  0  0  0  0  0  0  0  0  0
    2.4803   -0.0115    0.9646 C   0  0  0  0  0  0  0  0  0  0  0  0
    3.7678   -0.3650    1.0902 F   0  0  0  0  0  0  0  0  0  0  0  0
    1.5207   -0.7460    1.6588 C   0  0  0  0  0  0  0  0  0  0  0  0
   -1.2516    0.9301    0.6112 H   0  0  0  0  0  0  0  0  0  0  0  0
    0.4490    2.2090   -0.6165 H   0  0  0  0  0  0  0  0  0  0  0  0
    3.0047    1.6839   -1.7053 H   0  0  0  0  0  0  0  0  0  0  0  0
    4.1830    1.3684   -0.4507 H   0  0  0  0  0  0  0  0  0  0  0  0
    5.3167    3.2766   -0.2794 H   0  0  0  0  0  0  0  0  0  0  0  0
    2.2802    6.8728    2.6990 H   0  0  0  0  0  0  0  0  0  0  0  0
    1.1360    8.7026    3.9234 H   0  0  0  0  0  0  0  0  0  0  0  0
    1.9045   11.0575    3.5813 H   0  0  0  0  0  0  0  0  0  0  0  0
    3.8086   11.4673    2.0192 H   0  0  0  0  0  0  0  0  0  0  0  0
    7.8117    7.4039   -0.8388 H   0  0  0  0  0  0  0  0  0  0  0  0
    9.3952    6.9916   -2.6871 H   0  0  0  0  0  0  0  0  0  0  0  0
    8.9695    5.1824   -4.3286 H   0  0  0  0  0  0  0  0  0  0  0  0
    6.9274    3.7934   -4.1390 H   0  0  0  0  0  0  0  0  0  0  0  0
    5.3268    4.1842   -2.3454 H   0  0  0  0  0  0  0  0  0  0  0  0
    1.8418   -1.5742    2.2840 H   0  0  0  0  0  0  0  0  0  0  0  0
  1  2  3  0  0  0  0
  2  3  1  0  0  0  0
  3  4  2  0  0  0  0
  3 30  1  0  0  0  0
  4  5  1  0  0  0  0
  4 31  1  0  0  0  0
  5  6  2  0  0  0  0
  5 32  1  0  0  0  0
  6  7  1  0  0  0  0
  6 28  1  0  0  0  0
  7  8  1  0  0  0  0
  7 33  1  0  0  0  0
  7 34  1  0  0  0  0
  8  9  2  0  0  0  0
  8 10  1  0  0  0  0
 10 11  1  0  0  0  0
 10 35  1  0  0  0  0
 11 12  2  0  0  0  0
 11 21  1  0  0  0  0
 12 13  1  0  0  0  0
 13 14  1  0  0  0  0
 13 20  2  0  0  0  0
 14 15  2  0  0  0  0
 14 19  1  0  0  0  0
 15 16  1  0  0  0  0
 15 36  1  0  0  0  0
 16 17  2  0  0  0  0
 16 37  1  0  0  0  0
 17 18  1  0  0  0  0
 17 38  1  0  0  0  0
 18 19  2  0  0  0  0
 18 39  1  0  0  0  0
 20 21  1  0  0  0  0
 21 22  1  0  0  0  0
 22 23  2  0  0  0  0
 22 27  1  0  0  0  0
 23 24  1  0  0  0  0
 23 40  1  0  0  0  0
 24 25  2  0  0  0  0
 24 41  1  0  0  0  0
 25 26  1  0  0  0  0
 25 42  1  0  0  0  0
 26 27  2  0  0  0  0
 26 43  1  0  0  0  0
 27 44  1  0  0  0  0
 28 29  1  0  0  0  0
 28 30  2  0  0  0  0
 30 45  1  0  0  0  0
M  END
$$$$
