
 OpenBabel01122422353D

 47 50  0  0  0  0  0  0  0  0999 V2000
    4.5498    0.5919    5.6433 C   0  0  0  0  0  0  0  0  0  0  0  0
    5.0467    0.4948    4.2373 C   0  0  0  0  0  0  0  0  0  0  0  0
    5.5122    1.6035    3.5431 C   0  0  0  0  0  0  0  0  0  0  0  0
    6.0259    1.4251    2.2637 C   0  0  0  0  0  0  0  0  0  0  0  0
    6.0591    0.1434    1.7535 C   0  0  0  0  0  0  0  0  0  0  0  0
    6.6596   -0.0406    0.5166 O   0  0  0  0  0  0  0  0  0  0  0  0
    7.3382   -1.2227    0.3193 C   0  0  0  0  0  0  0  0  0  0  0  0
    7.3323   -1.7450   -0.9724 C   0  0  0  0  0  0  0  0  0  0  0  0
    7.9893   -2.9507   -1.2451 C   0  0  0  0  0  0  0  0  0  0  0  0
    8.6632   -3.6327   -0.2305 C   0  0  0  0  0  0  0  0  0  0  0  0
    9.3319   -4.8582   -0.4024 N   0  0  0  0  0  0  0  0  0  0  0  0
    9.4512   -5.5914   -1.5633 C   0  0  0  0  0  0  0  0  0  0  0  0
    9.0071   -5.3094   -2.6700 O   0  0  0  0  0  0  0  0  0  0  0  0
   10.2766   -6.8220   -1.4330 C   0  0  0  0  0  0  0  0  0  0  0  0
   10.2870   -7.6091   -0.2751 C   0  0  0  0  0  0  0  0  0  0  0  0
   11.1325   -8.7175   -0.1976 C   0  0  0  0  0  0  0  0  0  0  0  0
   11.9592   -9.0434   -1.2760 C   0  0  0  0  0  0  0  0  0  0  0  0
   11.9334   -8.2722   -2.4468 C   0  0  0  0  0  0  0  0  0  0  0  0
   12.8881   -8.5742   -3.5507 C   0  0  0  0  0  0  0  0  0  0  0  0
   14.0382   -9.0998   -3.2601 N   0  0  0  0  0  0  0  0  0  0  0  0
   14.9210   -9.2609   -4.2887 N   0  0  0  0  0  0  0  0  0  0  0  0
   14.7286   -8.8381   -5.5785 C   0  0  0  0  0  0  0  0  0  0  0  0
   15.5955   -8.8913   -6.4432 O   0  0  0  0  0  0  0  0  0  0  0  0
   13.3830   -8.3266   -5.8919 C   0  0  0  0  0  0  0  0  0  0  0  0
   12.4658   -8.2184   -4.9294 C   0  0  0  0  0  0  0  0  0  0  0  0
   11.0900   -7.1603   -2.5187 C   0  0  0  0  0  0  0  0  0  0  0  0
    8.6998   -3.0816    1.0540 C   0  0  0  0  0  0  0  0  0  0  0  0
    8.0602   -1.8726    1.3221 C   0  0  0  0  0  0  0  0  0  0  0  0
    5.5523   -0.9138    2.4261 N   0  0  0  0  0  0  0  0  0  0  0  0
    5.0608   -0.7387    3.6862 N   0  0  0  0  0  0  0  0  0  0  0  0
    4.4262    1.6325    5.9579 H   0  0  0  0  0  0  0  0  0  0  0  0
    5.2602    0.1073    6.3206 H   0  0  0  0  0  0  0  0  0  0  0  0
    3.5806    0.0914    5.7316 H   0  0  0  0  0  0  0  0  0  0  0  0
    5.4922    2.5920    3.9908 H   0  0  0  0  0  0  0  0  0  0  0  0
    6.4183    2.2589    1.6948 H   0  0  0  0  0  0  0  0  0  0  0  0
    6.8070   -1.2277   -1.7714 H   0  0  0  0  0  0  0  0  0  0  0  0
    7.9521   -3.3314   -2.2607 H   0  0  0  0  0  0  0  0  0  0  0  0
    9.8207   -5.1999    0.4135 H   0  0  0  0  0  0  0  0  0  0  0  0
    9.6415   -7.3809    0.5693 H   0  0  0  0  0  0  0  0  0  0  0  0
   11.1571   -9.3235    0.7058 H   0  0  0  0  0  0  0  0  0  0  0  0
   12.6286   -9.8982   -1.1970 H   0  0  0  0  0  0  0  0  0  0  0  0
   15.8410   -9.6138   -4.0476 H   0  0  0  0  0  0  0  0  0  0  0  0
   13.1842   -8.0667   -6.9228 H   0  0  0  0  0  0  0  0  0  0  0  0
   11.4585   -7.8873   -5.1402 H   0  0  0  0  0  0  0  0  0  0  0  0
   11.0876   -6.5107   -3.3903 H   0  0  0  0  0  0  0  0  0  0  0  0
    9.2130   -3.5859    1.8682 H   0  0  0  0  0  0  0  0  0  0  0  0
    8.1124   -1.4720    2.3305 H   0  0  0  0  0  0  0  0  0  0  0  0
  1  2  1  0  0  0  0
  1 31  1  0  0  0  0
  1 32  1  0  0  0  0
  1 33  1  0  0  0  0
  2  3  2  0  0  0  0
  2 30  1  0  0  0  0
  3  4  1  0  0  0  0
  3 34  1  0  0  0  0
  4  5  2  0  0  0  0
  4 35  1  0  0  0  0
  5  6  1  0  0  0  0
  5 29  1  0  0  0  0
  6  7  1  0  0  0  0
  7  8  2  0  0  0  0
  7 28  1  0  0  0  0
  8  9  1  0  0  0  0
  8 36  1  0  0  0  0
  9 10  2  0  0  0  0
  9 37  1  0  0  0  0
 10 11  1  0  0  0  0
 10 27  1  0  0  0  0
 11 12  1  0  0  0  0
 11 38  1  0  0  0  0
 12 13  2  0  0  0  0
 12 14  1  0  0  0  0
 14 15  2  0  0  0  0
 14 26  1  0  0  0  0
 15 16  1  0  0  0  0
 15 39  1  0  0  0  0
 16 17  2  0  0  0  0
 16 40  1  0  0  0  0
 17 18  1  0  0  0  0
 17 41  1  0  0  0  0
 18 19  1  0  0  0  0
 18 26  2  0  0  0  0
 19 20  2  0  0  0  0
 19 25  1  0  0  0  0
 20 21  1  0  0  0  0
 21 22  1  0  0  0  0
 21 42  1  0  0  0  0
 22 23  2  0  0  0  0
 22 24  1  0  0  0  0
 24 25  2  0  0  0  0
 24 43  1  0  0  0  0
 25 44  1  0  0  0  0
 26 45  1  0  0  0  0
 27 28  2  0  0  0  0
 27 46  1  0  0  0  0
 28 47  1  0  0  0  0
 29 30  2  0  0  0  0
M  END
$$$$
