
 OpenBabel01122422383D

 46 49  0  0  0  0  0  0  0  0999 V2000
    1.1363   -0.4957   -0.5872 O   0  0  0  0  0  0  0  0  0  0  0  0
    2.1634    0.0225   -0.1603 C   0  0  0  0  0  0  0  0  0  0  0  0
    2.6420    1.2281   -0.6050 N   0  0  0  0  0  0  0  0  0  0  0  0
    1.9884    1.9286   -1.6856 C   0  0  0  0  0  0  0  0  0  0  0  0
    2.2597    3.3861   -1.5426 C   0  0  0  0  0  0  0  0  0  0  0  0
    1.4837    4.2961   -0.8480 C   0  0  0  0  0  0  0  0  0  0  0  0
    2.0638    5.5303   -0.9506 N   0  0  0  0  0  0  0  0  0  0  0  0
    3.2140    5.4529   -1.7009 C   0  0  0  0  0  0  0  0  0  0  0  0
    4.1268    6.4559   -2.0535 C   0  0  0  0  0  0  0  0  0  0  0  0
    5.2224    6.0832   -2.8358 C   0  0  0  0  0  0  0  0  0  0  0  0
    5.3800    4.7660   -3.2459 C   0  0  0  0  0  0  0  0  0  0  0  0
    6.4413    4.4375   -3.9955 F   0  0  0  0  0  0  0  0  0  0  0  0
    4.4661    3.7729   -2.8942 C   0  0  0  0  0  0  0  0  0  0  0  0
    3.3579    4.1206   -2.0965 C   0  0  0  0  0  0  0  0  0  0  0  0
    3.0014   -0.6369    0.8908 C   0  0  0  0  0  0  0  0  0  0  0  0
    2.5891   -1.8202    1.3640 C   0  0  0  0  0  0  0  0  0  0  0  0
    3.3994   -2.5146    2.3856 C   0  0  0  0  0  0  0  0  0  0  0  0
    3.0564   -3.6217    2.7849 O   0  0  0  0  0  0  0  0  0  0  0  0
    4.6215   -1.8035    2.8758 C   0  0  0  0  0  0  0  0  0  0  0  0
    5.4738   -2.2976    3.8487 O   0  0  0  0  0  0  0  0  0  0  0  0
    4.8981   -3.1714    4.8236 C   0  0  0  0  0  0  0  0  0  0  0  0
    5.7133   -3.0792    6.0954 C   0  0  0  0  0  0  0  0  0  0  0  0
    5.1235   -2.6314    7.2872 C   0  0  0  0  0  0  0  0  0  0  0  0
    5.8644   -2.5700    8.4694 C   0  0  0  0  0  0  0  0  0  0  0  0
    7.2035   -2.9539    8.4747 C   0  0  0  0  0  0  0  0  0  0  0  0
    7.8045   -3.3932    7.2962 C   0  0  0  0  0  0  0  0  0  0  0  0
    7.0648   -3.4549    6.1124 C   0  0  0  0  0  0  0  0  0  0  0  0
    4.9002   -0.6287    2.2996 C   0  0  0  0  0  0  0  0  0  0  0  0
    4.1590   -0.0094    1.3215 O   0  0  0  0  0  0  0  0  0  0  0  0
    3.5416    1.5609   -0.2818 H   0  0  0  0  0  0  0  0  0  0  0  0
    0.9106    1.7315   -1.6677 H   0  0  0  0  0  0  0  0  0  0  0  0
    2.3837    1.5389   -2.6296 H   0  0  0  0  0  0  0  0  0  0  0  0
    0.5653    4.1628   -0.2906 H   0  0  0  0  0  0  0  0  0  0  0  0
    1.7051    6.3791   -0.5345 H   0  0  0  0  0  0  0  0  0  0  0  0
    3.9956    7.4841   -1.7319 H   0  0  0  0  0  0  0  0  0  0  0  0
    5.9611    6.8229   -3.1303 H   0  0  0  0  0  0  0  0  0  0  0  0
    4.6222    2.7557   -3.2361 H   0  0  0  0  0  0  0  0  0  0  0  0
    1.6852   -2.3158    1.0304 H   0  0  0  0  0  0  0  0  0  0  0  0
    4.9236   -4.2049    4.4581 H   0  0  0  0  0  0  0  0  0  0  0  0
    3.8615   -2.8901    5.0446 H   0  0  0  0  0  0  0  0  0  0  0  0
    4.0783   -2.3308    7.3053 H   0  0  0  0  0  0  0  0  0  0  0  0
    5.3945   -2.2264    9.3873 H   0  0  0  0  0  0  0  0  0  0  0  0
    7.7778   -2.9117    9.3965 H   0  0  0  0  0  0  0  0  0  0  0  0
    8.8499   -3.6910    7.3002 H   0  0  0  0  0  0  0  0  0  0  0  0
    7.5475   -3.7993    5.2002 H   0  0  0  0  0  0  0  0  0  0  0  0
    5.7649   -0.0351    2.5643 H   0  0  0  0  0  0  0  0  0  0  0  0
  1  2  2  0  0  0  0
  2  3  1  0  0  0  0
  2 15  1  0  0  0  0
  3  4  1  0  0  0  0
  3 30  1  0  0  0  0
  4  5  1  0  0  0  0
  4 31  1  0  0  0  0
  4 32  1  0  0  0  0
  5  6  2  0  0  0  0
  5 14  1  0  0  0  0
  6  7  1  0  0  0  0
  6 33  1  0  0  0  0
  7  8  1  0  0  0  0
  7 34  1  0  0  0  0
  8  9  2  0  0  0  0
  8 14  1  0  0  0  0
  9 10  1  0  0  0  0
  9 35  1  0  0  0  0
 10 11  2  0  0  0  0
 10 36  1  0  0  0  0
 11 12  1  0  0  0  0
 11 13  1  0  0  0  0
 13 14  2  0  0  0  0
 13 37  1  0  0  0  0
 15 16  2  0  0  0  0
 15 29  1  0  0  0  0
 16 17  1  0  0  0  0
 16 38  1  0  0  0  0
 17 18  2  0  0  0  0
 17 19  1  0  0  0  0
 19 20  1  0  0  0  0
 19 28  2  0  0  0  0
 20 21  1  0  0  0  0
 21 22  1  0  0  0  0
 21 39  1  0  0  0  0
 21 40  1  0  0  0  0
 22 23  2  0  0  0  0
 22 27  1  0  0  0  0
 23 24  1  0  0  0  0
 23 41  1  0  0  0  0
 24 25  2  0  0  0  0
 24 42  1  0  0  0  0
 25 26  1  0  0  0  0
 25 43  1  0  0  0  0
 26 27  2  0  0  0  0
 26 44  1  0  0  0  0
 27 45  1  0  0  0  0
 28 29  1  0  0  0  0
 28 46  1  0  0  0  0
M  END
$$$$
