
 OpenBabel01122422383D

 46 49  0  0  1  0  0  0  0  0999 V2000
    1.1722   -1.7698    0.9576 C   0  0  0  0  0  0  0  0  0  0  0  0
    2.5932   -1.6357    0.9204 O   0  0  0  0  0  0  0  0  0  0  0  0
    3.0507   -0.3910    1.2580 C   0  0  0  0  0  0  0  0  0  0  0  0
    2.3362    0.5537    1.5752 O   0  0  0  0  0  0  0  0  0  0  0  0
    4.5881   -0.3625    1.2122 C   0  0  1  0  0  0  0  0  0  0  0  0
    5.0952    0.9595    0.9801 O   0  0  0  0  0  0  0  0  0  0  0  0
    4.9622    1.3975   -0.2955 C   0  0  0  0  0  0  0  0  0  0  0  0
    4.4751    0.7660   -1.2181 O   0  0  0  0  0  0  0  0  0  0  0  0
    5.5360    2.7645   -0.4412 C   0  0  0  0  0  0  0  0  0  0  0  0
    5.4975    3.3852   -1.7010 C   0  0  0  0  0  0  0  0  0  0  0  0
    6.0727    4.6497   -1.8938 C   0  0  0  0  0  0  0  0  0  0  0  0
    6.7044    5.3030   -0.8341 C   0  0  0  0  0  0  0  0  0  0  0  0
    7.3099    6.5550   -1.0033 N   0  0  0  0  0  0  0  0  0  0  0  0
    7.9781    7.1605    0.0247 C   0  0  0  0  0  0  0  0  0  0  0  0
    8.0664    6.6662    1.2666 C   0  0  0  0  0  0  0  0  0  0  0  0
    7.4062    5.3702    1.5526 C   0  0  0  0  0  0  0  0  0  0  0  0
    7.4418    4.8895    2.6794 O   0  0  0  0  0  0  0  0  0  0  0  0
    6.7234    4.6813    0.4277 C   0  0  0  0  0  0  0  0  0  0  0  0
    6.1400    3.4273    0.6310 C   0  0  0  0  0  0  0  0  0  0  0  0
    5.1571   -0.8891    2.5246 C   0  0  0  0  0  0  0  0  0  0  0  0
    5.4574   -2.2525    2.6499 C   0  0  0  0  0  0  0  0  0  0  0  0
    5.8919   -2.7794    3.8685 C   0  0  0  0  0  0  0  0  0  0  0  0
    6.0349   -1.9590    4.9961 C   0  0  0  0  0  0  0  0  0  0  0  0
    6.4411   -2.4844    6.2342 C   0  0  0  0  0  0  0  0  0  0  0  0
    6.5728   -1.6591    7.3513 C   0  0  0  0  0  0  0  0  0  0  0  0
    6.3085   -0.2976    7.2418 C   0  0  0  0  0  0  0  0  0  0  0  0
    5.9033    0.2393    6.0173 C   0  0  0  0  0  0  0  0  0  0  0  0
    5.7538   -0.5792    4.8847 C   0  0  0  0  0  0  0  0  0  0  0  0
    5.3173   -0.0611    3.6498 C   0  0  0  0  0  0  0  0  0  0  0  0
    0.9127   -2.7370    0.5177 H   0  0  0  0  0  0  0  0  0  0  0  0
    0.6834   -0.9851    0.3714 H   0  0  0  0  0  0  0  0  0  0  0  0
    0.8240   -1.7549    1.9946 H   0  0  0  0  0  0  0  0  0  0  0  0
    4.9337   -1.0105    0.3957 H   0  0  0  0  0  0  0  0  0  0  0  0
    5.0267    2.8817   -2.5449 H   0  0  0  0  0  0  0  0  0  0  0  0
    6.0323    5.1066   -2.8797 H   0  0  0  0  0  0  0  0  0  0  0  0
    7.3344    6.9800   -1.9225 H   0  0  0  0  0  0  0  0  0  0  0  0
    8.4522    8.1019   -0.2360 H   0  0  0  0  0  0  0  0  0  0  0  0
    8.5992    7.1503    2.0714 H   0  0  0  0  0  0  0  0  0  0  0  0
    6.1824    2.9775    1.6202 H   0  0  0  0  0  0  0  0  0  0  0  0
    5.3363   -2.9244    1.8022 H   0  0  0  0  0  0  0  0  0  0  0  0
    6.1055   -3.8438    3.9345 H   0  0  0  0  0  0  0  0  0  0  0  0
    6.6506   -3.5468    6.3386 H   0  0  0  0  0  0  0  0  0  0  0  0
    6.8801   -2.0794    8.3054 H   0  0  0  0  0  0  0  0  0  0  0  0
    6.4140    0.3492    8.1087 H   0  0  0  0  0  0  0  0  0  0  0  0
    5.7001    1.3064    5.9541 H   0  0  0  0  0  0  0  0  0  0  0  0
    5.0822    1.0003    3.5723 H   0  0  0  0  0  0  0  0  0  0  0  0
  1  2  1  0  0  0  0
  1 30  1  0  0  0  0
  1 31  1  0  0  0  0
  1 32  1  0  0  0  0
  2  3  1  0  0  0  0
  3  4  2  0  0  0  0
  3  5  1  0  0  0  0
  5  6  1  0  0  0  0
  5 20  1  0  0  0  0
  5 33  1  6  0  0  0
  6  7  1  0  0  0  0
  7  8  2  0  0  0  0
  7  9  1  0  0  0  0
  9 10  2  0  0  0  0
  9 19  1  0  0  0  0
 10 11  1  0  0  0  0
 10 34  1  0  0  0  0
 11 12  2  0  0  0  0
 11 35  1  0  0  0  0
 12 13  1  0  0  0  0
 12 18  1  0  0  0  0
 13 14  1  0  0  0  0
 13 36  1  0  0  0  0
 14 15  2  0  0  0  0
 14 37  1  0  0  0  0
 15 16  1  0  0  0  0
 15 38  1  0  0  0  0
 16 17  2  0  0  0  0
 16 18  1  0  0  0  0
 18 19  2  0  0  0  0
 19 39  1  0  0  0  0
 20 21  2  0  0  0  0
 20 29  1  0  0  0  0
 21 22  1  0  0  0  0
 21 40  1  0  0  0  0
 22 23  2  0  0  0  0
 22 41  1  0  0  0  0
 23 24  1  0  0  0  0
 23 28  1  0  0  0  0
 24 25  2  0  0  0  0
 24 42  1  0  0  0  0
 25 26  1  0  0  0  0
 25 43  1  0  0  0  0
 26 27  2  0  0  0  0
 26 44  1  0  0  0  0
 27 28  1  0  0  0  0
 27 45  1  0  0  0  0
 28 29  2  0  0  0  0
 29 46  1  0  0  0  0
M  END
$$$$
