
 OpenBabel01122422383D

 42 45  0  0  0  0  0  0  0  0999 V2000
   -2.9297    0.9126   -0.4101 N   0  0  0  0  0  0  0  0  0  0  0  0
   -1.7786    0.7649   -0.3305 C   0  0  0  0  0  0  0  0  0  0  0  0
   -0.3730    0.5465   -0.2518 C   0  0  0  0  0  0  0  0  0  0  0  0
    0.1927   -0.6128   -0.7823 C   0  0  0  0  0  0  0  0  0  0  0  0
    1.5734   -0.8182   -0.6890 C   0  0  0  0  0  0  0  0  0  0  0  0
    2.4256    0.1273   -0.0804 C   0  0  0  0  0  0  0  0  0  0  0  0
    3.8841   -0.1091    0.0266 C   0  0  0  0  0  0  0  0  0  0  0  0
    4.6397    0.4002    1.0982 C   0  0  0  0  0  0  0  0  0  0  0  0
    6.0097    0.1500    1.2119 C   0  0  0  0  0  0  0  0  0  0  0  0
    6.6481   -0.6621    0.2813 C   0  0  0  0  0  0  0  0  0  0  0  0
    5.9222   -1.2154   -0.7769 C   0  0  0  0  0  0  0  0  0  0  0  0
    6.5595   -2.1986   -1.7209 C   0  0  0  0  0  0  0  0  0  0  0  0
    7.7060   -1.6292   -2.3434 O   0  0  0  0  0  0  0  0  0  0  0  0
    7.4798   -0.9009   -3.4576 C   0  0  0  0  0  0  0  0  0  0  0  0
    6.3890   -0.6606   -3.9544 O   0  0  0  0  0  0  0  0  0  0  0  0
    8.7621   -0.3903   -3.9793 C   0  0  0  0  0  0  0  0  0  0  0  0
    8.7578    0.6934   -4.7838 C   0  0  0  0  0  0  0  0  0  0  0  0
    9.9887    1.2680   -5.2986 C   0  0  0  0  0  0  0  0  0  0  0  0
   11.1676    0.7180   -4.9755 C   0  0  0  0  0  0  0  0  0  0  0  0
   11.1838   -0.3853   -4.1705 N   0  0  0  0  0  0  0  0  0  0  0  0
   12.2620   -1.1115   -3.7287 C   0  0  0  0  0  0  0  0  0  0  0  0
   13.4486   -0.9271   -3.9412 O   0  0  0  0  0  0  0  0  0  0  0  0
   11.7108   -2.1370   -2.9613 N   0  0  0  0  0  0  0  0  0  0  0  0
   10.3439   -2.0437   -2.9321 N   0  0  0  0  0  0  0  0  0  0  0  0
   10.0795   -0.9925   -3.6514 C   0  0  0  0  0  0  0  0  0  0  0  0
    4.5657   -0.8920   -0.9210 C   0  0  0  0  0  0  0  0  0  0  0  0
    1.8283    1.2876    0.4384 C   0  0  0  0  0  0  0  0  0  0  0  0
    0.4507    1.4845    0.3573 C   0  0  0  0  0  0  0  0  0  0  0  0
   -0.0673    2.6024    0.8866 F   0  0  0  0  0  0  0  0  0  0  0  0
   -0.4283   -1.3660   -1.2631 H   0  0  0  0  0  0  0  0  0  0  0  0
    1.9727   -1.7481   -1.0907 H   0  0  0  0  0  0  0  0  0  0  0  0
    4.1680    0.9882    1.8820 H   0  0  0  0  0  0  0  0  0  0  0  0
    6.5685    0.5668    2.0459 H   0  0  0  0  0  0  0  0  0  0  0  0
    7.7088   -0.8771    0.3923 H   0  0  0  0  0  0  0  0  0  0  0  0
    5.8545   -2.5874   -2.4660 H   0  0  0  0  0  0  0  0  0  0  0  0
    6.8950   -3.0651   -1.1384 H   0  0  0  0  0  0  0  0  0  0  0  0
    7.8281    1.1867   -5.0595 H   0  0  0  0  0  0  0  0  0  0  0  0
    9.9295    2.1455   -5.9356 H   0  0  0  0  0  0  0  0  0  0  0  0
   12.1244    1.0968   -5.3213 H   0  0  0  0  0  0  0  0  0  0  0  0
   12.2202   -2.8604   -2.4721 H   0  0  0  0  0  0  0  0  0  0  0  0
    4.0391   -1.2754   -1.7938 H   0  0  0  0  0  0  0  0  0  0  0  0
    2.4208    2.0653    0.9121 H   0  0  0  0  0  0  0  0  0  0  0  0
  1  2  3  0  0  0  0
  2  3  1  0  0  0  0
  3  4  2  0  0  0  0
  3 28  1  0  0  0  0
  4  5  1  0  0  0  0
  4 30  1  0  0  0  0
  5  6  2  0  0  0  0
  5 31  1  0  0  0  0
  6  7  1  0  0  0  0
  6 27  1  0  0  0  0
  7  8  2  0  0  0  0
  7 26  1  0  0  0  0
  8  9  1  0  0  0  0
  8 32  1  0  0  0  0
  9 10  2  0  0  0  0
  9 33  1  0  0  0  0
 10 11  1  0  0  0  0
 10 34  1  0  0  0  0
 11 12  1  0  0  0  0
 11 26  2  0  0  0  0
 12 13  1  0  0  0  0
 12 35  1  0  0  0  0
 12 36  1  0  0  0  0
 13 14  1  0  0  0  0
 14 15  2  0  0  0  0
 14 16  1  0  0  0  0
 16 17  2  0  0  0  0
 16 25  1  0  0  0  0
 17 18  1  0  0  0  0
 17 37  1  0  0  0  0
 18 19  2  0  0  0  0
 18 38  1  0  0  0  0
 19 20  1  0  0  0  0
 19 39  1  0  0  0  0
 20 21  1  0  0  0  0
 20 25  1  0  0  0  0
 21 22  2  0  0  0  0
 21 23  1  0  0  0  0
 23 24  1  0  0  0  0
 23 40  1  0  0  0  0
 24 25  2  0  0  0  0
 26 41  1  0  0  0  0
 27 28  2  0  0  0  0
 27 42  1  0  0  0  0
 28 29  1  0  0  0  0
M  END
$$$$
