
 OpenBabel01122422383D

 40 43  0  0  0  0  0  0  0  0999 V2000
    1.0175   -0.5906    0.4719 O   0  0  0  0  0  0  0  0  0  0  0  0
    2.2350   -0.5526    0.2888 C   0  0  0  0  0  0  0  0  0  0  0  0
    2.8899   -0.8826   -0.8779 N   0  0  0  0  0  0  0  0  0  0  0  0
    2.2614   -1.1743   -2.1103 C   0  0  0  0  0  0  0  0  0  0  0  0
    0.9280   -0.8382   -2.3723 C   0  0  0  0  0  0  0  0  0  0  0  0
    0.3279   -1.1770   -3.5832 C   0  0  0  0  0  0  0  0  0  0  0  0
    1.0651   -1.8380   -4.5588 C   0  0  0  0  0  0  0  0  0  0  0  0
    2.4181   -2.1349   -4.3452 C   0  0  0  0  0  0  0  0  0  0  0  0
    3.1980   -2.7722   -5.3865 C   0  0  0  0  0  0  0  0  0  0  0  0
    2.9846   -2.6613   -6.7429 C   0  0  0  0  0  0  0  0  0  0  0  0
    3.9740   -3.4165   -7.2924 N   0  0  0  0  0  0  0  0  0  0  0  0
    4.7567   -3.9618   -6.3497 N   0  0  0  0  0  0  0  0  0  0  0  0
    4.2950   -3.5632   -5.1696 N   0  0  0  0  0  0  0  0  0  0  0  0
    3.0104   -1.8007   -3.1142 C   0  0  0  0  0  0  0  0  0  0  0  0
    3.1352   -0.0689    1.3842 C   0  0  0  0  0  0  0  0  0  0  0  0
    2.5509    0.3460    2.5142 C   0  0  0  0  0  0  0  0  0  0  0  0
    3.3176    1.1998    3.4014 C   0  0  0  0  0  0  0  0  0  0  0  0
    2.6650    1.9461    4.3898 C   0  0  0  0  0  0  0  0  0  0  0  0
    3.3385    2.9822    5.0556 C   0  0  0  0  0  0  0  0  0  0  0  0
    2.6006    3.9038    5.9993 C   0  0  0  0  0  0  0  0  0  0  0  0
    1.2791    3.6024    6.1324 F   0  0  0  0  0  0  0  0  0  0  0  0
    3.1195    3.8900    7.2558 F   0  0  0  0  0  0  0  0  0  0  0  0
    2.6453    5.2006    5.5859 F   0  0  0  0  0  0  0  0  0  0  0  0
    4.6953    3.2044    4.7711 C   0  0  0  0  0  0  0  0  0  0  0  0
    5.3646    2.4145    3.8320 C   0  0  0  0  0  0  0  0  0  0  0  0
    4.6677    1.4253    3.1322 C   0  0  0  0  0  0  0  0  0  0  0  0
    5.3327    0.6802    2.0384 C   0  0  0  0  0  0  0  0  0  0  0  0
    6.5523    0.6757    1.9220 O   0  0  0  0  0  0  0  0  0  0  0  0
    4.5153    0.0632    1.1282 O   0  0  0  0  0  0  0  0  0  0  0  0
    3.8995   -0.9724   -0.8348 H   0  0  0  0  0  0  0  0  0  0  0  0
    0.3254   -0.2916   -1.6532 H   0  0  0  0  0  0  0  0  0  0  0  0
   -0.7141   -0.9249   -3.7591 H   0  0  0  0  0  0  0  0  0  0  0  0
    0.5680   -2.1203   -5.4831 H   0  0  0  0  0  0  0  0  0  0  0  0
    2.2622   -2.1254   -7.3392 H   0  0  0  0  0  0  0  0  0  0  0  0
    4.1821   -3.5984   -8.2675 H   0  0  0  0  0  0  0  0  0  0  0  0
    4.0552   -2.0507   -2.9431 H   0  0  0  0  0  0  0  0  0  0  0  0
    1.4842    0.2310    2.6906 H   0  0  0  0  0  0  0  0  0  0  0  0
    1.6050    1.7779    4.5872 H   0  0  0  0  0  0  0  0  0  0  0  0
    5.2268    4.0209    5.2576 H   0  0  0  0  0  0  0  0  0  0  0  0
    6.4114    2.6152    3.6038 H   0  0  0  0  0  0  0  0  0  0  0  0
  1  2  2  0  0  0  0
  2  3  1  0  0  0  0
  2 15  1  0  0  0  0
  3  4  1  0  0  0  0
  3 30  1  0  0  0  0
  4  5  2  0  0  0  0
  4 14  1  0  0  0  0
  5  6  1  0  0  0  0
  5 31  1  0  0  0  0
  6  7  2  0  0  0  0
  6 32  1  0  0  0  0
  7  8  1  0  0  0  0
  7 33  1  0  0  0  0
  8  9  1  0  0  0  0
  8 14  2  0  0  0  0
  9 10  2  0  0  0  0
  9 13  1  0  0  0  0
 10 11  1  0  0  0  0
 10 34  1  0  0  0  0
 11 12  1  0  0  0  0
 11 35  1  0  0  0  0
 12 13  2  0  0  0  0
 14 36  1  0  0  0  0
 15 16  2  0  0  0  0
 15 29  1  0  0  0  0
 16 17  1  0  0  0  0
 16 37  1  0  0  0  0
 17 18  2  0  0  0  0
 17 26  1  0  0  0  0
 18 19  1  0  0  0  0
 18 38  1  0  0  0  0
 19 20  1  0  0  0  0
 19 24  2  0  0  0  0
 20 21  1  0  0  0  0
 20 22  1  0  0  0  0
 20 23  1  0  0  0  0
 24 25  1  0  0  0  0
 24 39  1  0  0  0  0
 25 26  2  0  0  0  0
 25 40  1  0  0  0  0
 26 27  1  0  0  0  0
 27 28  2  0  0  0  0
 27 29  1  0  0  0  0
M  END
$$$$
