
 OpenBabel01122422383D

 45 48  0  0  0  0  0  0  0  0999 V2000
    1.0794    0.1396   -0.0020 C   0  0  0  0  0  0  0  0  0  0  0  0
    2.5300    0.1569    0.0932 N   0  0  0  0  0  0  0  0  0  0  0  0
    3.2194   -1.0460    0.1514 C   0  0  0  0  0  0  0  0  0  0  0  0
    4.5549   -1.0556    0.2298 C   0  0  0  0  0  0  0  0  0  0  0  0
    5.3538   -2.3442    0.3376 C   0  0  0  0  0  0  0  0  0  0  0  0
    6.0165   -3.4132    0.4271 N   0  0  0  0  0  0  0  0  0  0  0  0
    5.2973    0.1411    0.2600 C   0  0  0  0  0  0  0  0  0  0  0  0
    4.7036    1.3347    0.2673 C   0  0  0  0  0  0  0  0  0  0  0  0
    5.4140    2.5026    0.3615 N   0  0  0  0  0  0  0  0  0  0  0  0
    6.7875    2.5549    0.5988 C   0  0  0  0  0  0  0  0  0  0  0  0
    7.5405    1.6260    0.8411 O   0  0  0  0  0  0  0  0  0  0  0  0
    7.4130    3.8592    0.4109 C   0  0  0  0  0  0  0  0  0  0  0  0
    6.7393    5.0314    0.7050 C   0  0  0  0  0  0  0  0  0  0  0  0
    7.2544    6.2015    0.1905 C   0  0  0  0  0  0  0  0  0  0  0  0
    8.4273    6.1962   -0.6001 C   0  0  0  0  0  0  0  0  0  0  0  0
    8.7847    7.3669   -1.3071 N   0  0  0  0  0  0  0  0  0  0  0  0
   10.0950    7.7031   -1.5122 C   0  0  0  0  0  0  0  0  0  0  0  0
   10.5619    8.8750   -1.2115 N   0  0  0  0  0  0  0  0  0  0  0  0
    9.6456    9.6953   -0.5164 C   0  0  0  0  0  0  0  0  0  0  0  0
   10.0936   10.4812    0.5396 C   0  0  0  0  0  0  0  0  0  0  0  0
    9.1645   11.0989    1.3873 C   0  0  0  0  0  0  0  0  0  0  0  0
    7.7883   10.9925    1.1524 C   0  0  0  0  0  0  0  0  0  0  0  0
    7.3268   10.2396    0.0856 C   0  0  0  0  0  0  0  0  0  0  0  0
    8.2686    9.5754   -0.7024 C   0  0  0  0  0  0  0  0  0  0  0  0
    7.8474    8.3788   -1.4256 C   0  0  0  0  0  0  0  0  0  0  0  0
    6.7301    8.2771   -1.9219 O   0  0  0  0  0  0  0  0  0  0  0  0
    9.2168    5.0516   -0.6468 C   0  0  0  0  0  0  0  0  0  0  0  0
    8.6868    3.8676   -0.1735 C   0  0  0  0  0  0  0  0  0  0  0  0
    3.1983    1.3935    0.1344 C   0  0  0  0  0  0  0  0  0  0  0  0
    2.6266    2.4899    0.0721 O   0  0  0  0  0  0  0  0  0  0  0  0
    0.6844   -0.8814    0.0227 H   0  0  0  0  0  0  0  0  0  0  0  0
    0.7761    0.6185   -0.9387 H   0  0  0  0  0  0  0  0  0  0  0  0
    0.6578    0.7047    0.8358 H   0  0  0  0  0  0  0  0  0  0  0  0
    2.6396   -1.9641    0.1399 H   0  0  0  0  0  0  0  0  0  0  0  0
    6.3695   -0.0037    0.2926 H   0  0  0  0  0  0  0  0  0  0  0  0
    4.8758    3.3446    0.2025 H   0  0  0  0  0  0  0  0  0  0  0  0
    5.8096    5.0451    1.2641 H   0  0  0  0  0  0  0  0  0  0  0  0
    6.7065    7.1174    0.3992 H   0  0  0  0  0  0  0  0  0  0  0  0
   10.7450    6.9156   -1.9254 H   0  0  0  0  0  0  0  0  0  0  0  0
   11.1548   10.5232    0.7587 H   0  0  0  0  0  0  0  0  0  0  0  0
    9.5197   11.6287    2.2667 H   0  0  0  0  0  0  0  0  0  0  0  0
    7.0781   11.4414    1.8421 H   0  0  0  0  0  0  0  0  0  0  0  0
    6.2624   10.0585   -0.0551 H   0  0  0  0  0  0  0  0  0  0  0  0
   10.1901    5.0200   -1.1228 H   0  0  0  0  0  0  0  0  0  0  0  0
    9.2276    2.9362   -0.3348 H   0  0  0  0  0  0  0  0  0  0  0  0
  1  2  1  0  0  0  0
  1 31  1  0  0  0  0
  1 32  1  0  0  0  0
  1 33  1  0  0  0  0
  2  3  1  0  0  0  0
  2 29  1  0  0  0  0
  3  4  2  0  0  0  0
  3 34  1  0  0  0  0
  4  5  1  0  0  0  0
  4  7  1  0  0  0  0
  5  6  3  0  0  0  0
  7  8  2  0  0  0  0
  7 35  1  0  0  0  0
  8  9  1  0  0  0  0
  8 29  1  0  0  0  0
  9 10  1  0  0  0  0
  9 36  1  0  0  0  0
 10 11  2  0  0  0  0
 10 12  1  0  0  0  0
 12 13  2  0  0  0  0
 12 28  1  0  0  0  0
 13 14  1  0  0  0  0
 13 37  1  0  0  0  0
 14 15  2  0  0  0  0
 14 38  1  0  0  0  0
 15 16  1  0  0  0  0
 15 27  1  0  0  0  0
 16 17  1  0  0  0  0
 16 25  1  0  0  0  0
 17 18  2  0  0  0  0
 17 39  1  0  0  0  0
 18 19  1  0  0  0  0
 19 20  2  0  0  0  0
 19 24  1  0  0  0  0
 20 21  1  0  0  0  0
 20 40  1  0  0  0  0
 21 22  2  0  0  0  0
 21 41  1  0  0  0  0
 22 23  1  0  0  0  0
 22 42  1  0  0  0  0
 23 24  2  0  0  0  0
 23 43  1  0  0  0  0
 24 25  1  0  0  0  0
 25 26  2  0  0  0  0
 27 28  2  0  0  0  0
 27 44  1  0  0  0  0
 28 45  1  0  0  0  0
 29 30  2  0  0  0  0
M  END
$$$$
