
 OpenBabel01122422383D

 42 45  0  0  0  0  0  0  0  0999 V2000
    1.0283   -0.0311   -0.5153 O   0  0  0  0  0  0  0  0  0  0  0  0
    2.1532    0.0643   -0.0362 C   0  0  0  0  0  0  0  0  0  0  0  0
    2.7159   -0.8137    0.8785 N   0  0  0  0  0  0  0  0  0  0  0  0
    2.1102   -1.9916    1.3779 C   0  0  0  0  0  0  0  0  0  0  0  0
    0.9782   -2.5532    0.7834 C   0  0  0  0  0  0  0  0  0  0  0  0
    0.3685   -3.6721    1.3355 C   0  0  0  0  0  0  0  0  0  0  0  0
    0.9160   -4.2739    2.4618 C   0  0  0  0  0  0  0  0  0  0  0  0
    2.0993   -3.7936    3.0300 C   0  0  0  0  0  0  0  0  0  0  0  0
    2.7353   -4.4535    4.1140 N   0  0  0  0  0  0  0  0  0  0  0  0
    2.5046   -5.7758    4.4719 C   0  0  0  0  0  0  0  0  0  0  0  0
    1.7504   -6.5451    3.8801 O   0  0  0  0  0  0  0  0  0  0  0  0
    3.2194   -6.3312    5.6536 C   0  0  0  0  0  0  0  0  0  0  0  0
    2.9790   -7.6781    5.9744 C   0  0  0  0  0  0  0  0  0  0  0  0
    3.4608   -8.2362    7.1662 C   0  0  0  0  0  0  0  0  0  0  0  0
    3.2398   -9.5705    7.5081 C   0  0  0  0  0  0  0  0  0  0  0  0
    3.4739  -10.0837    8.7342 N   0  0  0  0  0  0  0  0  0  0  0  0
    3.9904   -9.2403    9.6498 C   0  0  0  0  0  0  0  0  0  0  0  0
    4.3971   -7.9441    9.3642 C   0  0  0  0  0  0  0  0  0  0  0  0
    4.1449   -7.4248    8.0866 C   0  0  0  0  0  0  0  0  0  0  0  0
    4.5078   -6.1210    7.6973 C   0  0  0  0  0  0  0  0  0  0  0  0
    4.0508   -5.5897    6.4866 C   0  0  0  0  0  0  0  0  0  0  0  0
    4.4082   -4.3371    6.1633 F   0  0  0  0  0  0  0  0  0  0  0  0
    2.6760   -2.6252    2.5018 C   0  0  0  0  0  0  0  0  0  0  0  0
    2.9706    1.1985   -0.3899 C   0  0  0  0  0  0  0  0  0  0  0  0
    4.2878    1.5453   -0.1816 C   0  0  0  0  0  0  0  0  0  0  0  0
    4.4167    2.8049   -0.7906 C   0  0  0  0  0  0  0  0  0  0  0  0
    5.5339    3.4865   -0.7950 F   0  0  0  0  0  0  0  0  0  0  0  0
    3.2963    3.2437   -1.3438 N   0  0  0  0  0  0  0  0  0  0  0  0
    2.4405    2.2401   -1.1227 N   0  0  0  0  0  0  0  0  0  0  0  0
    3.5868   -0.5360    1.3082 H   0  0  0  0  0  0  0  0  0  0  0  0
    0.5405   -2.1521   -0.1243 H   0  0  0  0  0  0  0  0  0  0  0  0
   -0.5308   -4.0809    0.8837 H   0  0  0  0  0  0  0  0  0  0  0  0
    0.3832   -5.1238    2.8762 H   0  0  0  0  0  0  0  0  0  0  0  0
    3.4886   -3.9603    4.5811 H   0  0  0  0  0  0  0  0  0  0  0  0
    2.3432   -8.2828    5.3269 H   0  0  0  0  0  0  0  0  0  0  0  0
    2.8518  -10.2818    6.7827 H   0  0  0  0  0  0  0  0  0  0  0  0
    4.0625   -9.6449   10.6558 H   0  0  0  0  0  0  0  0  0  0  0  0
    4.8448   -7.3398   10.1459 H   0  0  0  0  0  0  0  0  0  0  0  0
    5.1263   -5.5015    8.3416 H   0  0  0  0  0  0  0  0  0  0  0  0
    3.5756   -2.2204    2.9560 H   0  0  0  0  0  0  0  0  0  0  0  0
    5.0628    0.9839    0.3239 H   0  0  0  0  0  0  0  0  0  0  0  0
    1.4868    2.2980   -1.4684 H   0  0  0  0  0  0  0  0  0  0  0  0
  1  2  2  0  0  0  0
  2  3  1  0  0  0  0
  2 24  1  0  0  0  0
  3  4  1  0  0  0  0
  3 30  1  0  0  0  0
  4  5  2  0  0  0  0
  4 23  1  0  0  0  0
  5  6  1  0  0  0  0
  5 31  1  0  0  0  0
  6  7  2  0  0  0  0
  6 32  1  0  0  0  0
  7  8  1  0  0  0  0
  7 33  1  0  0  0  0
  8  9  1  0  0  0  0
  8 23  2  0  0  0  0
  9 10  1  0  0  0  0
  9 34  1  0  0  0  0
 10 11  2  0  0  0  0
 10 12  1  0  0  0  0
 12 13  2  0  0  0  0
 12 21  1  0  0  0  0
 13 14  1  0  0  0  0
 13 35  1  0  0  0  0
 14 15  2  0  0  0  0
 14 19  1  0  0  0  0
 15 16  1  0  0  0  0
 15 36  1  0  0  0  0
 16 17  2  0  0  0  0
 17 18  1  0  0  0  0
 17 37  1  0  0  0  0
 18 19  2  0  0  0  0
 18 38  1  0  0  0  0
 19 20  1  0  0  0  0
 20 21  2  0  0  0  0
 20 39  1  0  0  0  0
 21 22  1  0  0  0  0
 23 40  1  0  0  0  0
 24 25  2  0  0  0  0
 24 29  1  0  0  0  0
 25 26  1  0  0  0  0
 25 41  1  0  0  0  0
 26 27  1  0  0  0  0
 26 28  2  0  0  0  0
 28 29  1  0  0  0  0
 29 42  1  0  0  0  0
M  END
$$$$
