
 OpenBabel01122422383D

 48 51  0  0  0  0  0  0  0  0999 V2000
    1.0902    0.0573    0.5125 C   0  0  0  0  0  0  0  0  0  0  0  0
    2.5069    0.1189    0.1367 N   0  0  0  0  0  0  0  0  0  0  0  0
    3.1374    1.3015   -0.3304 C   0  0  0  0  0  0  0  0  0  0  0  0
    4.2746    1.3364   -0.8098 O   0  0  0  0  0  0  0  0  0  0  0  0
    2.4445    2.6326   -0.3878 C   0  0  0  0  0  0  0  0  0  0  0  0
    1.4994    3.0899    0.5349 C   0  0  0  0  0  0  0  0  0  0  0  0
    0.8507    4.3139    0.3419 C   0  0  0  0  0  0  0  0  0  0  0  0
    1.2327    5.1482   -0.7052 C   0  0  0  0  0  0  0  0  0  0  0  0
    2.2704    4.7706   -1.5646 C   0  0  0  0  0  0  0  0  0  0  0  0
    2.7591    5.7761   -2.5482 C   0  0  0  0  0  0  0  0  0  0  0  0
    2.5992    6.9568   -2.2562 O   0  0  0  0  0  0  0  0  0  0  0  0
    3.3322    5.2783   -3.7013 N   0  0  0  0  0  0  0  0  0  0  0  0
    3.8360    6.0874   -4.7057 C   0  0  0  0  0  0  0  0  0  0  0  0
    3.8824    7.4162   -4.6643 N   0  0  0  0  0  0  0  0  0  0  0  0
    4.4169    7.7552   -5.8523 N   0  0  0  0  0  0  0  0  0  0  0  0
    4.6127    9.1030   -6.1968 C   0  0  0  0  0  0  0  0  0  0  0  0
    4.3148   10.1277   -5.2907 C   0  0  0  0  0  0  0  0  0  0  0  0
    4.5243   11.4508   -5.6652 C   0  0  0  0  0  0  0  0  0  0  0  0
    5.0230   11.6996   -6.9339 C   0  0  0  0  0  0  0  0  0  0  0  0
    5.3230   10.7334   -7.8327 N   0  0  0  0  0  0  0  0  0  0  0  0
    5.1138    9.4516   -7.4457 C   0  0  0  0  0  0  0  0  0  0  0  0
    4.7393    6.7186   -6.6757 N   0  0  0  0  0  0  0  0  0  0  0  0
    4.3814    5.6674   -5.9360 C   0  0  0  0  0  0  0  0  0  0  0  0
    2.8577    3.5112   -1.4134 C   0  0  0  0  0  0  0  0  0  0  0  0
    3.2306   -1.1538    0.1860 C   0  0  0  0  0  0  0  0  0  0  0  0
    4.6295   -1.2382    0.0950 C   0  0  0  0  0  0  0  0  0  0  0  0
    5.3038   -2.4688    0.0917 C   0  0  0  0  0  0  0  0  0  0  0  0
    4.5966   -3.6570    0.1972 C   0  0  0  0  0  0  0  0  0  0  0  0
    3.2168   -3.6120    0.3225 C   0  0  0  0  0  0  0  0  0  0  0  0
    2.5484   -2.3798    0.3275 C   0  0  0  0  0  0  0  0  0  0  0  0
    0.5275    0.9479    0.2534 H   0  0  0  0  0  0  0  0  0  0  0  0
    1.0298   -0.1102    1.5946 H   0  0  0  0  0  0  0  0  0  0  0  0
    0.5703   -0.7352   -0.0286 H   0  0  0  0  0  0  0  0  0  0  0  0
    1.2476    2.5161    1.4215 H   0  0  0  0  0  0  0  0  0  0  0  0
    0.0673    4.6347    1.0263 H   0  0  0  0  0  0  0  0  0  0  0  0
    0.7481    6.1162   -0.8274 H   0  0  0  0  0  0  0  0  0  0  0  0
    3.3498    4.2855   -3.8747 H   0  0  0  0  0  0  0  0  0  0  0  0
    3.9221    9.9053   -4.2994 H   0  0  0  0  0  0  0  0  0  0  0  0
    4.3046   12.2637   -4.9833 H   0  0  0  0  0  0  0  0  0  0  0  0
    5.2046   12.7168   -7.2709 H   0  0  0  0  0  0  0  0  0  0  0  0
    5.3622    8.7066   -8.1973 H   0  0  0  0  0  0  0  0  0  0  0  0
    4.5238    4.6678   -6.3254 H   0  0  0  0  0  0  0  0  0  0  0  0
    3.6881    3.2151   -2.0513 H   0  0  0  0  0  0  0  0  0  0  0  0
    5.2590   -0.3567    0.0419 H   0  0  0  0  0  0  0  0  0  0  0  0
    6.3875   -2.4849    0.0055 H   0  0  0  0  0  0  0  0  0  0  0  0
    5.1182   -4.6098    0.1881 H   0  0  0  0  0  0  0  0  0  0  0  0
    2.6483   -4.5352    0.4078 H   0  0  0  0  0  0  0  0  0  0  0  0
    1.4705   -2.4404    0.4192 H   0  0  0  0  0  0  0  0  0  0  0  0
  1  2  1  0  0  0  0
  1 31  1  0  0  0  0
  1 32  1  0  0  0  0
  1 33  1  0  0  0  0
  2  3  1  0  0  0  0
  2 25  1  0  0  0  0
  3  4  2  0  0  0  0
  3  5  1  0  0  0  0
  5  6  2  0  0  0  0
  5 24  1  0  0  0  0
  6  7  1  0  0  0  0
  6 34  1  0  0  0  0
  7  8  2  0  0  0  0
  7 35  1  0  0  0  0
  8  9  1  0  0  0  0
  8 36  1  0  0  0  0
  9 10  1  0  0  0  0
  9 24  2  0  0  0  0
 10 11  2  0  0  0  0
 10 12  1  0  0  0  0
 12 13  1  0  0  0  0
 12 37  1  0  0  0  0
 13 14  2  0  0  0  0
 13 23  1  0  0  0  0
 14 15  1  0  0  0  0
 15 16  1  0  0  0  0
 15 22  1  0  0  0  0
 16 17  2  0  0  0  0
 16 21  1  0  0  0  0
 17 18  1  0  0  0  0
 17 38  1  0  0  0  0
 18 19  2  0  0  0  0
 18 39  1  0  0  0  0
 19 20  1  0  0  0  0
 19 40  1  0  0  0  0
 20 21  2  0  0  0  0
 21 41  1  0  0  0  0
 22 23  2  0  0  0  0
 23 42  1  0  0  0  0
 24 43  1  0  0  0  0
 25 26  2  0  0  0  0
 25 30  1  0  0  0  0
 26 27  1  0  0  0  0
 26 44  1  0  0  0  0
 27 28  2  0  0  0  0
 27 45  1  0  0  0  0
 28 29  1  0  0  0  0
 28 46  1  0  0  0  0
 29 30  2  0  0  0  0
 29 47  1  0  0  0  0
 30 48  1  0  0  0  0
M  END
$$$$
