
 OpenBabel01122422383D

 49 52  0  0  0  0  0  0  0  0999 V2000
    4.1160    0.0723   -1.1850 O   0  0  0  0  0  0  0  0  0  0  0  0
    3.4169    1.0124   -0.8008 C   0  0  0  0  0  0  0  0  0  0  0  0
    3.0857    1.1304    0.6942 C   0  0  0  0  0  0  0  0  0  0  0  0
    2.0521    2.1128    1.0714 N   0  0  0  0  0  0  0  0  0  0  0  0
    0.6639    1.8110    1.0133 C   0  0  0  0  0  0  0  0  0  0  0  0
   -0.1807    2.6898    1.2153 O   0  0  0  0  0  0  0  0  0  0  0  0
    0.2144    0.4691    0.6763 C   0  0  0  0  0  0  0  0  0  0  0  0
    0.5806   -0.3465   -0.3853 C   0  0  0  0  0  0  0  0  0  0  0  0
   -0.2545   -1.4607   -0.3398 C   0  0  0  0  0  0  0  0  0  0  0  0
   -1.1492   -1.3653    0.6315 N   0  0  0  0  0  0  0  0  0  0  0  0
   -0.8712   -0.1902    1.2669 N   0  0  0  0  0  0  0  0  0  0  0  0
   -1.6773    0.1506    2.3929 C   0  0  0  0  0  0  0  0  0  0  0  0
   -1.2327    0.9835    3.4158 C   0  0  0  0  0  0  0  0  0  0  0  0
   -2.1127    1.2743    4.4483 C   0  0  0  0  0  0  0  0  0  0  0  0
   -3.3707    0.7907    4.5331 N   0  0  0  0  0  0  0  0  0  0  0  0
   -3.7693   -0.0342    3.5443 C   0  0  0  0  0  0  0  0  0  0  0  0
   -2.9672   -0.3920    2.4758 C   0  0  0  0  0  0  0  0  0  0  0  0
    2.5332    3.3001    1.7554 C   0  0  0  0  0  0  0  0  0  0  0  0
    1.8099    3.8932    2.8034 C   0  0  0  0  0  0  0  0  0  0  0  0
    2.3316    4.9648    3.5405 C   0  0  0  0  0  0  0  0  0  0  0  0
    3.5848    5.4797    3.2346 C   0  0  0  0  0  0  0  0  0  0  0  0
    4.3108    4.9289    2.1854 C   0  0  0  0  0  0  0  0  0  0  0  0
    3.7923    3.8500    1.4557 C   0  0  0  0  0  0  0  0  0  0  0  0
    2.9413    2.0167   -1.6257 N   0  0  0  0  0  0  0  0  0  0  0  0
    3.1959    2.0160   -3.0162 C   0  0  0  0  0  0  0  0  0  0  0  0
    3.0526    0.8604   -3.7945 C   0  0  0  0  0  0  0  0  0  0  0  0
    3.4132    0.8670   -5.1440 C   0  0  0  0  0  0  0  0  0  0  0  0
    3.9399    2.0236   -5.7136 C   0  0  0  0  0  0  0  0  0  0  0  0
    4.0445    3.1880   -4.9524 C   0  0  0  0  0  0  0  0  0  0  0  0
    3.6382    3.1951   -3.6149 C   0  0  0  0  0  0  0  0  0  0  0  0
    4.0255    1.3314    1.2206 H   0  0  0  0  0  0  0  0  0  0  0  0
    2.7722    0.1424    1.0428 H   0  0  0  0  0  0  0  0  0  0  0  0
    1.3165   -0.1669   -1.1493 H   0  0  0  0  0  0  0  0  0  0  0  0
   -0.2688   -2.3225   -0.9952 H   0  0  0  0  0  0  0  0  0  0  0  0
   -0.2298    1.3844    3.4605 H   0  0  0  0  0  0  0  0  0  0  0  0
   -1.8166    1.9240    5.2669 H   0  0  0  0  0  0  0  0  0  0  0  0
   -4.7858   -0.4074    3.6285 H   0  0  0  0  0  0  0  0  0  0  0  0
   -3.3629   -1.0528    1.7101 H   0  0  0  0  0  0  0  0  0  0  0  0
    0.8417    3.5151    3.1162 H   0  0  0  0  0  0  0  0  0  0  0  0
    1.7575    5.3839    4.3643 H   0  0  0  0  0  0  0  0  0  0  0  0
    3.9924    6.3056    3.8124 H   0  0  0  0  0  0  0  0  0  0  0  0
    5.2891    5.3339    1.9363 H   0  0  0  0  0  0  0  0  0  0  0  0
    4.4042    3.4682    0.6439 H   0  0  0  0  0  0  0  0  0  0  0  0
    2.7466    2.9096   -1.1863 H   0  0  0  0  0  0  0  0  0  0  0  0
    2.6537   -0.0559   -3.3665 H   0  0  0  0  0  0  0  0  0  0  0  0
    3.3061   -0.0350   -5.7410 H   0  0  0  0  0  0  0  0  0  0  0  0
    4.2758    2.0149   -6.7474 H   0  0  0  0  0  0  0  0  0  0  0  0
    4.4696    4.0846   -5.3949 H   0  0  0  0  0  0  0  0  0  0  0  0
    3.7517    4.1073   -3.0346 H   0  0  0  0  0  0  0  0  0  0  0  0
  1  2  2  0  0  0  0
  2  3  1  0  0  0  0
  2 24  1  0  0  0  0
  3  4  1  0  0  0  0
  3 31  1  0  0  0  0
  3 32  1  0  0  0  0
  4  5  1  0  0  0  0
  4 18  1  0  0  0  0
  5  6  2  0  0  0  0
  5  7  1  0  0  0  0
  7  8  2  0  0  0  0
  7 11  1  0  0  0  0
  8  9  1  0  0  0  0
  8 33  1  0  0  0  0
  9 10  2  0  0  0  0
  9 34  1  0  0  0  0
 10 11  1  0  0  0  0
 11 12  1  0  0  0  0
 12 13  2  0  0  0  0
 12 17  1  0  0  0  0
 13 14  1  0  0  0  0
 13 35  1  0  0  0  0
 14 15  2  0  0  0  0
 14 36  1  0  0  0  0
 15 16  1  0  0  0  0
 16 17  2  0  0  0  0
 16 37  1  0  0  0  0
 17 38  1  0  0  0  0
 18 19  2  0  0  0  0
 18 23  1  0  0  0  0
 19 20  1  0  0  0  0
 19 39  1  0  0  0  0
 20 21  2  0  0  0  0
 20 40  1  0  0  0  0
 21 22  1  0  0  0  0
 21 41  1  0  0  0  0
 22 23  2  0  0  0  0
 22 42  1  0  0  0  0
 23 43  1  0  0  0  0
 24 25  1  0  0  0  0
 24 44  1  0  0  0  0
 25 26  2  0  0  0  0
 25 30  1  0  0  0  0
 26 27  1  0  0  0  0
 26 45  1  0  0  0  0
 27 28  2  0  0  0  0
 27 46  1  0  0  0  0
 28 29  1  0  0  0  0
 28 47  1  0  0  0  0
 29 30  2  0  0  0  0
 29 48  1  0  0  0  0
 30 49  1  0  0  0  0
M  END
$$$$
