
 OpenBabel01122422383D

 50 53  0  0  1  0  0  0  0  0999 V2000
    3.5106    0.8803    1.3867 N   0  0  0  0  0  0  0  0  0  0  0  0
    3.2788    0.2037    0.2100 C   0  0  0  0  0  0  0  0  0  0  0  0
    3.7953   -1.0110    0.0818 N   0  0  0  0  0  0  0  0  0  0  0  0
    3.5887   -1.6151   -1.1185 C   0  0  0  0  0  0  0  0  0  0  0  0
    4.2240   -2.9757   -1.2100 C   0  0  0  0  0  0  0  0  0  0  0  0
    4.6191   -3.4551   -2.2646 O   0  0  0  0  0  0  0  0  0  0  0  0
    4.3435   -3.6233    0.0025 N   0  0  0  0  0  0  0  0  0  0  0  0
    4.9332   -4.9466    0.1263 C   0  0  3  0  0  0  0  0  0  0  0  0
    5.6841   -5.0712    1.4666 C   0  0  0  0  0  0  0  0  0  0  0  0
    5.5445   -6.0289    2.2335 O   0  0  0  0  0  0  0  0  0  0  0  0
    6.7351   -4.0091    1.7501 C   0  0  0  0  0  0  0  0  0  0  0  0
    6.4546   -3.1786    2.9778 C   0  0  0  0  0  0  0  0  0  0  0  0
    6.3815   -3.7758    4.2451 C   0  0  0  0  0  0  0  0  0  0  0  0
    6.1775   -3.0014    5.3870 C   0  0  0  0  0  0  0  0  0  0  0  0
    6.0551   -1.6183    5.2782 C   0  0  0  0  0  0  0  0  0  0  0  0
    6.1256   -1.0116    4.0254 C   0  0  0  0  0  0  0  0  0  0  0  0
    6.3201   -1.7863    2.8799 C   0  0  0  0  0  0  0  0  0  0  0  0
    3.9209   -6.0544   -0.1178 C   0  0  0  0  0  0  0  0  0  0  0  0
    4.0989   -6.9319   -1.2023 C   0  0  0  0  0  0  0  0  0  0  0  0
    3.2312   -8.0071   -1.4058 C   0  0  0  0  0  0  0  0  0  0  0  0
    2.1671   -8.2169   -0.5344 C   0  0  0  0  0  0  0  0  0  0  0  0
    1.9609   -7.3419    0.5307 C   0  0  0  0  0  0  0  0  0  0  0  0
    2.8270   -6.2636    0.7354 C   0  0  0  0  0  0  0  0  0  0  0  0
    2.8354   -1.0713   -2.1669 C   0  0  0  0  0  0  0  0  0  0  0  0
    2.5536   -1.6633   -3.4293 C   0  0  0  0  0  0  0  0  0  0  0  0
    1.7341   -1.0215   -4.3544 C   0  0  0  0  0  0  0  0  0  0  0  0
    1.1866    0.2118   -4.0360 C   0  0  0  0  0  0  0  0  0  0  0  0
    1.4782    0.7998   -2.8026 C   0  0  0  0  0  0  0  0  0  0  0  0
    2.2966    0.1806   -1.8637 C   0  0  0  0  0  0  0  0  0  0  0  0
    2.5209    0.8091   -0.7028 N   0  0  0  0  0  0  0  0  0  0  0  0
    3.6874    0.2428    2.1494 H   0  0  0  0  0  0  0  0  0  0  0  0
    2.8015    1.5879    1.5260 H   0  0  0  0  0  0  0  0  0  0  0  0
    4.0035   -3.1361    0.8267 H   0  0  0  0  0  0  0  0  0  0  0  0
    5.7154   -5.0290   -0.6406 H   0  0  0  0  0  0  0  0  0  0  0  0
    6.8460   -3.3648    0.8704 H   0  0  0  0  0  0  0  0  0  0  0  0
    7.7002   -4.5176    1.8629 H   0  0  0  0  0  0  0  0  0  0  0  0
    6.4915   -4.8547    4.3526 H   0  0  0  0  0  0  0  0  0  0  0  0
    6.1283   -3.4792    6.3622 H   0  0  0  0  0  0  0  0  0  0  0  0
    5.9156   -1.0152    6.1709 H   0  0  0  0  0  0  0  0  0  0  0  0
    6.0470    0.0697    3.9428 H   0  0  0  0  0  0  0  0  0  0  0  0
    6.3862   -1.2883    1.9139 H   0  0  0  0  0  0  0  0  0  0  0  0
    4.9275   -6.7919   -1.8937 H   0  0  0  0  0  0  0  0  0  0  0  0
    3.3958   -8.6876   -2.2376 H   0  0  0  0  0  0  0  0  0  0  0  0
    1.5020   -9.0641   -0.6810 H   0  0  0  0  0  0  0  0  0  0  0  0
    1.1334   -7.5098    1.2144 H   0  0  0  0  0  0  0  0  0  0  0  0
    2.6612   -5.6114    1.5894 H   0  0  0  0  0  0  0  0  0  0  0  0
    2.9658   -2.6340   -3.6977 H   0  0  0  0  0  0  0  0  0  0  0  0
    1.5216   -1.4888   -5.3127 H   0  0  0  0  0  0  0  0  0  0  0  0
    0.5328    0.7198   -4.7405 H   0  0  0  0  0  0  0  0  0  0  0  0
    1.0449    1.7692   -2.5645 H   0  0  0  0  0  0  0  0  0  0  0  0
  1  2  1  0  0  0  0
  1 31  1  0  0  0  0
  1 32  1  0  0  0  0
  2  3  2  0  0  0  0
  2 30  1  0  0  0  0
  3  4  1  0  0  0  0
  4  5  1  0  0  0  0
  4 24  2  0  0  0  0
  5  6  2  0  0  0  0
  5  7  1  0  0  0  0
  7  8  1  0  0  0  0
  7 33  1  0  0  0  0
  8  9  1  0  0  0  0
  8 18  1  0  0  0  0
  8 34  1  0  0  0  0
  9 10  2  0  0  0  0
  9 11  1  0  0  0  0
 11 12  1  0  0  0  0
 11 35  1  0  0  0  0
 11 36  1  0  0  0  0
 12 13  2  0  0  0  0
 12 17  1  0  0  0  0
 13 14  1  0  0  0  0
 13 37  1  0  0  0  0
 14 15  2  0  0  0  0
 14 38  1  0  0  0  0
 15 16  1  0  0  0  0
 15 39  1  0  0  0  0
 16 17  2  0  0  0  0
 16 40  1  0  0  0  0
 17 41  1  0  0  0  0
 18 19  2  0  0  0  0
 18 23  1  0  0  0  0
 19 20  1  0  0  0  0
 19 42  1  0  0  0  0
 20 21  2  0  0  0  0
 20 43  1  0  0  0  0
 21 22  1  0  0  0  0
 21 44  1  0  0  0  0
 22 23  2  0  0  0  0
 22 45  1  0  0  0  0
 23 46  1  0  0  0  0
 24 25  1  0  0  0  0
 24 29  1  0  0  0  0
 25 26  2  0  0  0  0
 25 47  1  0  0  0  0
 26 27  1  0  0  0  0
 26 48  1  0  0  0  0
 27 28  2  0  0  0  0
 27 49  1  0  0  0  0
 28 29  1  0  0  0  0
 28 50  1  0  0  0  0
 29 30  2  0  0  0  0
M  END
$$$$
