
 OpenBabel01122422383D

 44 47  0  0  0  0  0  0  0  0999 V2000
    1.1115    0.1186   -0.0262 O   0  0  0  0  0  0  0  0  0  0  0  0
    2.3321    0.1236    0.0794 C   0  0  0  0  0  0  0  0  0  0  0  0
    3.0232    1.1341    0.7067 N   0  0  0  0  0  0  0  0  0  0  0  0
    2.3013    2.2354    1.3028 C   0  0  0  0  0  0  0  0  0  0  0  0
    3.2113    3.1656    2.0327 C   0  0  0  0  0  0  0  0  0  0  0  0
    4.5398    2.9883    2.0830 N   0  0  0  0  0  0  0  0  0  0  0  0
    5.0193    4.0013    2.9047 O   0  0  0  0  0  0  0  0  0  0  0  0
    3.9818    4.7715    3.3397 C   0  0  0  0  0  0  0  0  0  0  0  0
    4.2777    5.8317    4.2861 C   0  0  0  0  0  0  0  0  0  0  0  0
    5.5648    6.1168    4.7292 C   0  0  0  0  0  0  0  0  0  0  0  0
    5.7341    7.0890    5.7130 C   0  0  0  0  0  0  0  0  0  0  0  0
    4.6185    7.7500    6.2183 C   0  0  0  0  0  0  0  0  0  0  0  0
    3.3762    7.4222    5.7047 C   0  0  0  0  0  0  0  0  0  0  0  0
    3.1805    6.4816    4.7548 N   0  0  0  0  0  0  0  0  0  0  0  0
    2.8169    4.2962    2.7810 C   0  0  0  0  0  0  0  0  0  0  0  0
    3.1225   -1.0097   -0.4524 C   0  0  0  0  0  0  0  0  0  0  0  0
    2.5086   -2.2462   -0.6806 C   0  0  0  0  0  0  0  0  0  0  0  0
    3.2513   -3.2911   -1.2269 C   0  0  0  0  0  0  0  0  0  0  0  0
    4.5846   -3.0556   -1.5353 C   0  0  0  0  0  0  0  0  0  0  0  0
    5.2849   -4.0855   -2.1470 O   0  0  0  0  0  0  0  0  0  0  0  0
    6.3179   -3.7302   -2.9871 C   0  0  0  0  0  0  0  0  0  0  0  0
    7.4524   -4.5474   -2.9632 C   0  0  0  0  0  0  0  0  0  0  0  0
    8.5315   -4.2748   -3.8098 C   0  0  0  0  0  0  0  0  0  0  0  0
    8.4826   -3.1853   -4.6820 C   0  0  0  0  0  0  0  0  0  0  0  0
    7.3471   -2.3797   -4.7227 C   0  0  0  0  0  0  0  0  0  0  0  0
    6.2638   -2.6686   -3.8967 C   0  0  0  0  0  0  0  0  0  0  0  0
    5.1599   -1.9152   -4.0234 F   0  0  0  0  0  0  0  0  0  0  0  0
    5.2214   -1.8916   -1.2703 N   0  0  0  0  0  0  0  0  0  0  0  0
    4.4650   -0.8841   -0.7757 C   0  0  0  0  0  0  0  0  0  0  0  0
    4.0087    1.0718    0.9278 H   0  0  0  0  0  0  0  0  0  0  0  0
    1.5624    1.8193    1.9978 H   0  0  0  0  0  0  0  0  0  0  0  0
    1.7655    2.7658    0.5082 H   0  0  0  0  0  0  0  0  0  0  0  0
    6.4257    5.5846    4.3383 H   0  0  0  0  0  0  0  0  0  0  0  0
    6.7246    7.3173    6.0920 H   0  0  0  0  0  0  0  0  0  0  0  0
    4.7172    8.5011    6.9938 H   0  0  0  0  0  0  0  0  0  0  0  0
    2.4761    7.9146    6.0617 H   0  0  0  0  0  0  0  0  0  0  0  0
    1.8249    4.6884    2.9415 H   0  0  0  0  0  0  0  0  0  0  0  0
    1.4542   -2.3885   -0.4492 H   0  0  0  0  0  0  0  0  0  0  0  0
    2.7957   -4.2523   -1.4322 H   0  0  0  0  0  0  0  0  0  0  0  0
    7.4988   -5.3944   -2.2840 H   0  0  0  0  0  0  0  0  0  0  0  0
    9.4119   -4.9124   -3.7893 H   0  0  0  0  0  0  0  0  0  0  0  0
    9.3235   -2.9708   -5.3365 H   0  0  0  0  0  0  0  0  0  0  0  0
    7.2880   -1.5325   -5.3990 H   0  0  0  0  0  0  0  0  0  0  0  0
    4.9989    0.0559   -0.6848 H   0  0  0  0  0  0  0  0  0  0  0  0
  1  2  2  0  0  0  0
  2  3  1  0  0  0  0
  2 16  1  0  0  0  0
  3  4  1  0  0  0  0
  3 30  1  0  0  0  0
  4  5  1  0  0  0  0
  4 31  1  0  0  0  0
  4 32  1  0  0  0  0
  5  6  2  0  0  0  0
  5 15  1  0  0  0  0
  6  7  1  0  0  0  0
  7  8  1  0  0  0  0
  8  9  1  0  0  0  0
  8 15  2  0  0  0  0
  9 10  2  0  0  0  0
  9 14  1  0  0  0  0
 10 11  1  0  0  0  0
 10 33  1  0  0  0  0
 11 12  2  0  0  0  0
 11 34  1  0  0  0  0
 12 13  1  0  0  0  0
 12 35  1  0  0  0  0
 13 14  2  0  0  0  0
 13 36  1  0  0  0  0
 15 37  1  0  0  0  0
 16 17  2  0  0  0  0
 16 29  1  0  0  0  0
 17 18  1  0  0  0  0
 17 38  1  0  0  0  0
 18 19  2  0  0  0  0
 18 39  1  0  0  0  0
 19 20  1  0  0  0  0
 19 28  1  0  0  0  0
 20 21  1  0  0  0  0
 21 22  2  0  0  0  0
 21 26  1  0  0  0  0
 22 23  1  0  0  0  0
 22 40  1  0  0  0  0
 23 24  2  0  0  0  0
 23 41  1  0  0  0  0
 24 25  1  0  0  0  0
 24 42  1  0  0  0  0
 25 26  2  0  0  0  0
 25 43  1  0  0  0  0
 26 27  1  0  0  0  0
 28 29  2  0  0  0  0
 29 44  1  0  0  0  0
M  END
$$$$
