
 OpenBabel01122422383D

 44 47  0  0  0  0  0  0  0  0999 V2000
    5.1136   -2.4503   -3.8810 C   0  0  0  0  0  0  0  0  0  0  0  0
    4.5738   -1.7752   -2.7472 O   0  0  0  0  0  0  0  0  0  0  0  0
    5.2318   -2.0291   -1.5839 C   0  0  0  0  0  0  0  0  0  0  0  0
    6.2076   -2.7558   -1.4708 O   0  0  0  0  0  0  0  0  0  0  0  0
    4.5991   -1.2496   -0.4710 C   0  0  0  0  0  0  0  0  0  0  0  0
    3.2535   -1.0458   -0.6073 N   0  0  0  0  0  0  0  0  0  0  0  0
    2.6291   -0.3781    0.3770 C   0  0  0  0  0  0  0  0  0  0  0  0
    3.2743    0.0953    1.4999 C   0  0  0  0  0  0  0  0  0  0  0  0
    4.6500   -0.1156    1.6366 C   0  0  0  0  0  0  0  0  0  0  0  0
    5.3129    0.3470    2.7848 C   0  0  0  0  0  0  0  0  0  0  0  0
    6.6817    0.1523    2.9790 C   0  0  0  0  0  0  0  0  0  0  0  0
    7.3571    0.5463    4.1583 N   0  0  0  0  0  0  0  0  0  0  0  0
    6.7475    0.8786    5.3571 C   0  0  0  0  0  0  0  0  0  0  0  0
    5.5386    0.8589    5.5671 O   0  0  0  0  0  0  0  0  0  0  0  0
    7.6395    1.2527    6.4411 C   0  0  0  0  0  0  0  0  0  0  0  0
    9.0167    1.3262    6.5076 C   0  0  0  0  0  0  0  0  0  0  0  0
    9.3508    1.7673    7.7769 N   0  0  0  0  0  0  0  0  0  0  0  0
   10.6310    2.0392    8.3273 C   0  0  0  0  0  0  0  0  0  0  0  0
   10.7259    2.4675    9.6646 C   0  0  0  0  0  0  0  0  0  0  0  0
   11.9722    2.7392   10.2359 C   0  0  0  0  0  0  0  0  0  0  0  0
   13.1324    2.5901    9.4806 C   0  0  0  0  0  0  0  0  0  0  0  0
   13.0459    2.1740    8.1535 C   0  0  0  0  0  0  0  0  0  0  0  0
   11.8030    1.9014    7.5827 C   0  0  0  0  0  0  0  0  0  0  0  0
   11.7927    1.5137    6.3005 F   0  0  0  0  0  0  0  0  0  0  0  0
    8.2383    1.9408    8.5369 N   0  0  0  0  0  0  0  0  0  0  0  0
    7.2252    1.6392    7.7310 C   0  0  0  0  0  0  0  0  0  0  0  0
    7.4151   -0.4596    1.9667 C   0  0  0  0  0  0  0  0  0  0  0  0
    6.7689   -0.9341    0.8152 C   0  0  0  0  0  0  0  0  0  0  0  0
    5.3671   -0.7941    0.6314 C   0  0  0  0  0  0  0  0  0  0  0  0
    4.4694   -2.2405   -4.7390 H   0  0  0  0  0  0  0  0  0  0  0  0
    5.1316   -3.5324   -3.7178 H   0  0  0  0  0  0  0  0  0  0  0  0
    6.1178   -2.0745   -4.1001 H   0  0  0  0  0  0  0  0  0  0  0  0
    1.5614   -0.2308    0.2407 H   0  0  0  0  0  0  0  0  0  0  0  0
    2.7048    0.6216    2.2626 H   0  0  0  0  0  0  0  0  0  0  0  0
    4.7221    0.8788    3.5256 H   0  0  0  0  0  0  0  0  0  0  0  0
    8.3649    0.4729    4.1495 H   0  0  0  0  0  0  0  0  0  0  0  0
    9.7735    1.1122    5.7714 H   0  0  0  0  0  0  0  0  0  0  0  0
    9.8344    2.5950   10.2784 H   0  0  0  0  0  0  0  0  0  0  0  0
   12.0326    3.0678   11.2711 H   0  0  0  0  0  0  0  0  0  0  0  0
   14.1020    2.7996    9.9247 H   0  0  0  0  0  0  0  0  0  0  0  0
   13.9438    2.0602    7.5531 H   0  0  0  0  0  0  0  0  0  0  0  0
    6.2101    1.7105    8.1054 H   0  0  0  0  0  0  0  0  0  0  0  0
    8.4874   -0.6149    2.0590 H   0  0  0  0  0  0  0  0  0  0  0  0
    7.3810   -1.4284    0.0628 H   0  0  0  0  0  0  0  0  0  0  0  0
  1  2  1  0  0  0  0
  1 30  1  0  0  0  0
  1 31  1  0  0  0  0
  1 32  1  0  0  0  0
  2  3  1  0  0  0  0
  3  4  2  0  0  0  0
  3  5  1  0  0  0  0
  5  6  2  0  0  0  0
  5 29  1  0  0  0  0
  6  7  1  0  0  0  0
  7  8  2  0  0  0  0
  7 33  1  0  0  0  0
  8  9  1  0  0  0  0
  8 34  1  0  0  0  0
  9 10  2  0  0  0  0
  9 29  1  0  0  0  0
 10 11  1  0  0  0  0
 10 35  1  0  0  0  0
 11 12  1  0  0  0  0
 11 27  2  0  0  0  0
 12 13  1  0  0  0  0
 12 36  1  0  0  0  0
 13 14  2  0  0  0  0
 13 15  1  0  0  0  0
 15 16  2  0  0  0  0
 15 26  1  0  0  0  0
 16 17  1  0  0  0  0
 16 37  1  0  0  0  0
 17 18  1  0  0  0  0
 17 25  1  0  0  0  0
 18 19  2  0  0  0  0
 18 23  1  0  0  0  0
 19 20  1  0  0  0  0
 19 38  1  0  0  0  0
 20 21  2  0  0  0  0
 20 39  1  0  0  0  0
 21 22  1  0  0  0  0
 21 40  1  0  0  0  0
 22 23  2  0  0  0  0
 22 41  1  0  0  0  0
 23 24  1  0  0  0  0
 25 26  2  0  0  0  0
 26 42  1  0  0  0  0
 27 28  1  0  0  0  0
 27 43  1  0  0  0  0
 28 29  2  0  0  0  0
 28 44  1  0  0  0  0
M  END
$$$$
