
 OpenBabel01122422383D

 46 49  0  0  0  0  0  0  0  0999 V2000
    2.2145    0.0592   -0.0174 C   0  0  0  0  0  0  0  0  0  0  0  0
    0.7666   -0.0197   -0.0204 N   0  0  0  0  0  0  0  0  0  0  0  0
    0.0049   -1.1817   -0.0776 C   0  0  0  0  0  0  0  0  0  0  0  0
    0.4930   -2.5602   -0.1146 C   0  0  0  0  0  0  0  0  0  0  0  0
    1.5419   -2.9137    0.4089 O   0  0  0  0  0  0  0  0  0  0  0  0
   -0.3476   -3.3871   -0.8433 N   0  0  0  0  0  0  0  0  0  0  0  0
   -0.2067   -4.7638   -1.1075 C   0  0  0  0  0  0  0  0  0  0  0  0
    0.6711   -5.6035   -0.4151 C   0  0  0  0  0  0  0  0  0  0  0  0
    0.8257   -6.9538   -0.7689 C   0  0  0  0  0  0  0  0  0  0  0  0
    0.0798   -7.4068   -1.8533 C   0  0  0  0  0  0  0  0  0  0  0  0
    0.1396   -8.6538   -2.4009 O   0  0  0  0  0  0  0  0  0  0  0  0
   -0.7199   -8.6638   -3.4646 C   0  0  0  0  0  0  0  0  0  0  0  0
   -0.7666   -9.9070   -4.2679 C   0  0  0  0  0  0  0  0  0  0  0  0
   -1.1748  -10.9659   -3.4139 O   0  0  0  0  0  0  0  0  0  0  0  0
   -1.3616   -7.4490   -3.5683 C   0  0  0  0  0  0  0  0  0  0  0  0
   -0.8307   -6.6206   -2.5459 C   0  0  0  0  0  0  0  0  0  0  0  0
   -1.0022   -5.2827   -2.1476 C   0  0  0  0  0  0  0  0  0  0  0  0
   -1.3225   -0.7790   -0.0760 C   0  0  0  0  0  0  0  0  0  0  0  0
   -1.3621    0.6241   -0.0861 C   0  0  0  0  0  0  0  0  0  0  0  0
   -0.0651    1.1021   -0.0018 C   0  0  0  0  0  0  0  0  0  0  0  0
    0.3738    2.4966    0.0690 C   0  0  0  0  0  0  0  0  0  0  0  0
    1.4879    2.8738   -0.2899 O   0  0  0  0  0  0  0  0  0  0  0  0
   -0.5876    3.5390    0.5295 C   0  0  0  0  0  0  0  0  0  0  0  0
   -0.6315    4.7752   -0.1279 C   0  0  0  0  0  0  0  0  0  0  0  0
   -1.5987    5.7241    0.2262 C   0  0  0  0  0  0  0  0  0  0  0  0
   -2.5229    5.4417    1.2351 C   0  0  0  0  0  0  0  0  0  0  0  0
   -2.4494    4.2343    1.9250 C   0  0  0  0  0  0  0  0  0  0  0  0
   -1.4680    3.3035    1.5876 C   0  0  0  0  0  0  0  0  0  0  0  0
   -1.4027    2.1768    2.3115 F   0  0  0  0  0  0  0  0  0  0  0  0
    2.6634   -0.9065    0.2030 H   0  0  0  0  0  0  0  0  0  0  0  0
    2.5313    0.7657    0.7537 H   0  0  0  0  0  0  0  0  0  0  0  0
    2.5374    0.3933   -1.0080 H   0  0  0  0  0  0  0  0  0  0  0  0
   -1.0710   -2.9137   -1.3668 H   0  0  0  0  0  0  0  0  0  0  0  0
    1.2572   -5.2315    0.4218 H   0  0  0  0  0  0  0  0  0  0  0  0
    1.5139   -7.6048   -0.2436 H   0  0  0  0  0  0  0  0  0  0  0  0
    0.2162  -10.1429   -4.6856 H   0  0  0  0  0  0  0  0  0  0  0  0
   -1.4849   -9.8249   -5.0892 H   0  0  0  0  0  0  0  0  0  0  0  0
   -0.6047  -10.9071   -2.6261 H   0  0  0  0  0  0  0  0  0  0  0  0
   -2.0945   -7.1798   -4.3169 H   0  0  0  0  0  0  0  0  0  0  0  0
   -1.7031   -4.6549   -2.6881 H   0  0  0  0  0  0  0  0  0  0  0  0
   -2.1839   -1.4336   -0.0656 H   0  0  0  0  0  0  0  0  0  0  0  0
   -2.2629    1.2242   -0.1106 H   0  0  0  0  0  0  0  0  0  0  0  0
    0.0754    5.0010   -0.9228 H   0  0  0  0  0  0  0  0  0  0  0  0
   -1.6404    6.6796   -0.2910 H   0  0  0  0  0  0  0  0  0  0  0  0
   -3.2925    6.1662    1.4914 H   0  0  0  0  0  0  0  0  0  0  0  0
   -3.1493    4.0045    2.7228 H   0  0  0  0  0  0  0  0  0  0  0  0
  1  2  1  0  0  0  0
  1 30  1  0  0  0  0
  1 31  1  0  0  0  0
  1 32  1  0  0  0  0
  2  3  1  0  0  0  0
  2 20  1  0  0  0  0
  3  4  1  0  0  0  0
  3 18  2  0  0  0  0
  4  5  2  0  0  0  0
  4  6  1  0  0  0  0
  6  7  1  0  0  0  0
  6 33  1  0  0  0  0
  7  8  2  0  0  0  0
  7 17  1  0  0  0  0
  8  9  1  0  0  0  0
  8 34  1  0  0  0  0
  9 10  2  0  0  0  0
  9 35  1  0  0  0  0
 10 11  1  0  0  0  0
 10 16  1  0  0  0  0
 11 12  1  0  0  0  0
 12 13  1  0  0  0  0
 12 15  2  0  0  0  0
 13 14  1  0  0  0  0
 13 36  1  0  0  0  0
 13 37  1  0  0  0  0
 14 38  1  0  0  0  0
 15 16  1  0  0  0  0
 15 39  1  0  0  0  0
 16 17  2  0  0  0  0
 17 40  1  0  0  0  0
 18 19  1  0  0  0  0
 18 41  1  0  0  0  0
 19 20  2  0  0  0  0
 19 42  1  0  0  0  0
 20 21  1  0  0  0  0
 21 22  2  0  0  0  0
 21 23  1  0  0  0  0
 23 24  2  0  0  0  0
 23 28  1  0  0  0  0
 24 25  1  0  0  0  0
 24 43  1  0  0  0  0
 25 26  2  0  0  0  0
 25 44  1  0  0  0  0
 26 27  1  0  0  0  0
 26 45  1  0  0  0  0
 27 28  2  0  0  0  0
 27 46  1  0  0  0  0
 28 29  1  0  0  0  0
M  END
$$$$
