
 OpenBabel01122422383D

 46 49  0  0  0  0  0  0  0  0999 V2000
    1.1097    0.0220    0.0860 C   0  0  0  0  0  0  0  0  0  0  0  0
    2.5859   -0.1031    0.0868 C   0  0  0  0  0  0  0  0  0  0  0  0
    3.3614    0.9380    0.4204 N   0  0  0  0  0  0  0  0  0  0  0  0
    4.6265    0.4994    0.1900 N   0  0  0  0  0  0  0  0  0  0  0  0
    5.7135    1.4114    0.0842 C   0  0  0  0  0  0  0  0  0  0  0  0
    5.6352    2.6645    0.6978 C   0  0  0  0  0  0  0  0  0  0  0  0
    6.7069    3.5655    0.6101 C   0  0  0  0  0  0  0  0  0  0  0  0
    7.8614    3.2192   -0.0848 C   0  0  0  0  0  0  0  0  0  0  0  0
    8.9742    3.9840   -0.2410 O   0  0  0  0  0  0  0  0  0  0  0  0
    9.3494    4.8892    0.7850 C   0  0  0  0  0  0  0  0  0  0  0  0
    8.6759    4.7254    1.9420 F   0  0  0  0  0  0  0  0  0  0  0  0
   10.6641    4.7062    1.0470 F   0  0  0  0  0  0  0  0  0  0  0  0
    9.1788    6.1550    0.3500 F   0  0  0  0  0  0  0  0  0  0  0  0
    7.9089    1.9977   -0.7628 C   0  0  0  0  0  0  0  0  0  0  0  0
    6.8441    1.1010   -0.6810 C   0  0  0  0  0  0  0  0  0  0  0  0
    4.6532   -0.8733   -0.0107 C   0  0  0  0  0  0  0  0  0  0  0  0
    5.8130   -1.6326    0.0179 N   0  0  0  0  0  0  0  0  0  0  0  0
    6.0694   -2.5338   -0.9965 C   0  0  0  0  0  0  0  0  0  0  0  0
    5.3314   -2.7459   -1.9527 O   0  0  0  0  0  0  0  0  0  0  0  0
    7.3680   -3.2546   -0.9106 C   0  0  0  0  0  0  0  0  0  0  0  0
    8.4899   -2.7656   -0.2402 C   0  0  0  0  0  0  0  0  0  0  0  0
    9.6086   -3.5796   -0.1778 C   0  0  0  0  0  0  0  0  0  0  0  0
    9.6723   -4.8123   -0.7219 N   0  0  0  0  0  0  0  0  0  0  0  0
    8.5785   -5.2585   -1.3934 C   0  0  0  0  0  0  0  0  0  0  0  0
    8.6367   -6.6183   -1.9387 C   0  0  0  0  0  0  0  0  0  0  0  0
    7.6409   -7.1402   -2.6780 N   0  0  0  0  0  0  0  0  0  0  0  0
    8.0412   -8.3876   -2.9563 N   0  0  0  0  0  0  0  0  0  0  0  0
    9.2527   -8.7024   -2.4214 C   0  0  0  0  0  0  0  0  0  0  0  0
    9.6736   -7.5751   -1.7627 C   0  0  0  0  0  0  0  0  0  0  0  0
    7.4249   -4.5030   -1.5250 C   0  0  0  0  0  0  0  0  0  0  0  0
    3.3469   -1.2590   -0.1944 C   0  0  0  0  0  0  0  0  0  0  0  0
    0.7952    1.0718    0.0844 H   0  0  0  0  0  0  0  0  0  0  0  0
    0.6843   -0.4632    0.9692 H   0  0  0  0  0  0  0  0  0  0  0  0
    0.6865   -0.4544   -0.8059 H   0  0  0  0  0  0  0  0  0  0  0  0
    4.7479    2.9471    1.2635 H   0  0  0  0  0  0  0  0  0  0  0  0
    6.5959    4.5332    1.0974 H   0  0  0  0  0  0  0  0  0  0  0  0
    8.7737    1.7488   -1.3727 H   0  0  0  0  0  0  0  0  0  0  0  0
    6.9041    0.1967   -1.2818 H   0  0  0  0  0  0  0  0  0  0  0  0
    6.5677   -1.2997    0.6014 H   0  0  0  0  0  0  0  0  0  0  0  0
    8.5313   -1.7849    0.2153 H   0  0  0  0  0  0  0  0  0  0  0  0
   10.5101   -3.2551    0.3348 H   0  0  0  0  0  0  0  0  0  0  0  0
    7.4285   -8.9737   -3.5132 H   0  0  0  0  0  0  0  0  0  0  0  0
    9.6941   -9.6797   -2.5514 H   0  0  0  0  0  0  0  0  0  0  0  0
   10.5920   -7.4426   -1.2079 H   0  0  0  0  0  0  0  0  0  0  0  0
    6.5676   -4.8915   -2.0688 H   0  0  0  0  0  0  0  0  0  0  0  0
    2.9872   -2.2563   -0.4084 H   0  0  0  0  0  0  0  0  0  0  0  0
  1  2  1  0  0  0  0
  1 32  1  0  0  0  0
  1 33  1  0  0  0  0
  1 34  1  0  0  0  0
  2  3  2  0  0  0  0
  2 31  1  0  0  0  0
  3  4  1  0  0  0  0
  4  5  1  0  0  0  0
  4 16  1  0  0  0  0
  5  6  2  0  0  0  0
  5 15  1  0  0  0  0
  6  7  1  0  0  0  0
  6 35  1  0  0  0  0
  7  8  2  0  0  0  0
  7 36  1  0  0  0  0
  8  9  1  0  0  0  0
  8 14  1  0  0  0  0
  9 10  1  0  0  0  0
 10 11  1  0  0  0  0
 10 12  1  0  0  0  0
 10 13  1  0  0  0  0
 14 15  2  0  0  0  0
 14 37  1  0  0  0  0
 15 38  1  0  0  0  0
 16 17  1  0  0  0  0
 16 31  2  0  0  0  0
 17 18  1  0  0  0  0
 17 39  1  0  0  0  0
 18 19  2  0  0  0  0
 18 20  1  0  0  0  0
 20 21  2  0  0  0  0
 20 30  1  0  0  0  0
 21 22  1  0  0  0  0
 21 40  1  0  0  0  0
 22 23  2  0  0  0  0
 22 41  1  0  0  0  0
 23 24  1  0  0  0  0
 24 25  1  0  0  0  0
 24 30  2  0  0  0  0
 25 26  2  0  0  0  0
 25 29  1  0  0  0  0
 26 27  1  0  0  0  0
 27 28  1  0  0  0  0
 27 42  1  0  0  0  0
 28 29  2  0  0  0  0
 28 43  1  0  0  0  0
 29 44  1  0  0  0  0
 30 45  1  0  0  0  0
 31 46  1  0  0  0  0
M  END
$$$$
