
 OpenBabel01122422383D

 42 45  0  0  0  0  0  0  0  0999 V2000
    1.0992   -0.0227   -0.0761 O   0  0  0  0  0  0  0  0  0  0  0  0
    2.3225    0.0608   -0.0388 C   0  0  0  0  0  0  0  0  0  0  0  0
    3.0601    0.7902   -0.9374 N   0  0  0  0  0  0  0  0  0  0  0  0
    2.4385    1.4846   -2.0417 C   0  0  0  0  0  0  0  0  0  0  0  0
    2.3343    0.5709   -3.2054 C   0  0  0  0  0  0  0  0  0  0  0  0
    1.3668   -0.3246   -3.6058 C   0  0  0  0  0  0  0  0  0  0  0  0
    1.8209   -0.8838   -4.8225 C   0  0  0  0  0  0  0  0  0  0  0  0
    3.0390   -0.2955   -5.1070 C   0  0  0  0  0  0  0  0  0  0  0  0
    3.9854   -0.4061   -6.2168 C   0  0  0  0  0  0  0  0  0  0  0  0
    5.1934    0.3040   -6.2242 C   0  0  0  0  0  0  0  0  0  0  0  0
    6.0570    0.2067   -7.3123 C   0  0  0  0  0  0  0  0  0  0  0  0
    7.2049    0.8994   -7.3050 F   0  0  0  0  0  0  0  0  0  0  0  0
    5.7501   -0.5891   -8.4078 C   0  0  0  0  0  0  0  0  0  0  0  0
    4.5611   -1.3108   -8.4139 C   0  0  0  0  0  0  0  0  0  0  0  0
    3.6872   -1.2197   -7.3243 C   0  0  0  0  0  0  0  0  0  0  0  0
    3.3586    0.5863   -4.1082 O   0  0  0  0  0  0  0  0  0  0  0  0
    3.1444   -0.6402    0.9990 C   0  0  0  0  0  0  0  0  0  0  0  0
    2.5025   -1.4736    1.8267 C   0  0  0  0  0  0  0  0  0  0  0  0
    3.2549   -2.1928    2.8666 C   0  0  0  0  0  0  0  0  0  0  0  0
    2.6499   -2.9418    3.6206 O   0  0  0  0  0  0  0  0  0  0  0  0
    4.7125   -1.9370    2.9234 C   0  0  0  0  0  0  0  0  0  0  0  0
    5.2490   -1.0209    2.0125 C   0  0  0  0  0  0  0  0  0  0  0  0
    6.6116   -0.7108    2.0395 C   0  0  0  0  0  0  0  0  0  0  0  0
    7.4486   -1.3252    2.9701 C   0  0  0  0  0  0  0  0  0  0  0  0
    6.9273   -2.2558    3.8687 C   0  0  0  0  0  0  0  0  0  0  0  0
    5.5640   -2.5622    3.8450 C   0  0  0  0  0  0  0  0  0  0  0  0
    5.0845   -3.4835    4.7305 O   0  0  0  0  0  0  0  0  0  0  0  0
    4.5036   -0.3816    1.0496 O   0  0  0  0  0  0  0  0  0  0  0  0
    4.0687    0.7197   -0.9222 H   0  0  0  0  0  0  0  0  0  0  0  0
    3.0571    2.3553   -2.2797 H   0  0  0  0  0  0  0  0  0  0  0  0
    1.4455    1.8405   -1.7461 H   0  0  0  0  0  0  0  0  0  0  0  0
    0.4451   -0.5371   -3.0801 H   0  0  0  0  0  0  0  0  0  0  0  0
    1.3080   -1.6192   -5.4257 H   0  0  0  0  0  0  0  0  0  0  0  0
    5.4746    0.9426   -5.3923 H   0  0  0  0  0  0  0  0  0  0  0  0
    6.4356   -0.6396   -9.2478 H   0  0  0  0  0  0  0  0  0  0  0  0
    4.3062   -1.9380   -9.2645 H   0  0  0  0  0  0  0  0  0  0  0  0
    2.7619   -1.7908   -7.3591 H   0  0  0  0  0  0  0  0  0  0  0  0
    1.4360   -1.6593    1.7808 H   0  0  0  0  0  0  0  0  0  0  0  0
    7.0234    0.0102    1.3377 H   0  0  0  0  0  0  0  0  0  0  0  0
    8.5084   -1.0818    2.9938 H   0  0  0  0  0  0  0  0  0  0  0  0
    7.5957   -2.7304    4.5826 H   0  0  0  0  0  0  0  0  0  0  0  0
    5.8046   -3.8507    5.2664 H   0  0  0  0  0  0  0  0  0  0  0  0
  1  2  2  0  0  0  0
  2  3  1  0  0  0  0
  2 17  1  0  0  0  0
  3  4  1  0  0  0  0
  3 29  1  0  0  0  0
  4  5  1  0  0  0  0
  4 30  1  0  0  0  0
  4 31  1  0  0  0  0
  5  6  2  0  0  0  0
  5 16  1  0  0  0  0
  6  7  1  0  0  0  0
  6 32  1  0  0  0  0
  7  8  2  0  0  0  0
  7 33  1  0  0  0  0
  8  9  1  0  0  0  0
  8 16  1  0  0  0  0
  9 10  2  0  0  0  0
  9 15  1  0  0  0  0
 10 11  1  0  0  0  0
 10 34  1  0  0  0  0
 11 12  1  0  0  0  0
 11 13  2  0  0  0  0
 13 14  1  0  0  0  0
 13 35  1  0  0  0  0
 14 15  2  0  0  0  0
 14 36  1  0  0  0  0
 15 37  1  0  0  0  0
 17 18  2  0  0  0  0
 17 28  1  0  0  0  0
 18 19  1  0  0  0  0
 18 38  1  0  0  0  0
 19 20  2  0  0  0  0
 19 21  1  0  0  0  0
 21 22  2  0  0  0  0
 21 26  1  0  0  0  0
 22 23  1  0  0  0  0
 22 28  1  0  0  0  0
 23 24  2  0  0  0  0
 23 39  1  0  0  0  0
 24 25  1  0  0  0  0
 24 40  1  0  0  0  0
 25 26  2  0  0  0  0
 25 41  1  0  0  0  0
 26 27  1  0  0  0  0
 27 42  1  0  0  0  0
M  END
$$$$
