
 OpenBabel01122422383D

 42 45  0  0  0  0  0  0  0  0999 V2000
    3.2029    0.6558   -2.8775 O   0  0  0  0  0  0  0  0  0  0  0  0
    2.5138    0.1348   -2.0153 C   0  0  0  0  0  0  0  0  0  0  0  0
    2.9673   -0.6102   -0.9798 O   0  0  0  0  0  0  0  0  0  0  0  0
    4.3888   -0.8365   -0.9727 C   0  0  0  0  0  0  0  0  0  0  0  0
    4.7908   -1.9687   -1.8485 C   0  0  0  0  0  0  0  0  0  0  0  0
    5.6762   -1.9720   -2.9004 C   0  0  0  0  0  0  0  0  0  0  0  0
    5.7347   -3.2330   -3.4039 O   0  0  0  0  0  0  0  0  0  0  0  0
    4.8612   -3.9519   -2.6286 C   0  0  0  0  0  0  0  0  0  0  0  0
    4.7008   -5.3640   -2.9663 C   0  0  0  0  0  0  0  0  0  0  0  0
    5.4280   -5.9578   -4.0088 C   0  0  0  0  0  0  0  0  0  0  0  0
    5.2482   -7.3056   -4.3342 C   0  0  0  0  0  0  0  0  0  0  0  0
    4.3340   -8.0941   -3.6236 C   0  0  0  0  0  0  0  0  0  0  0  0
    4.1180   -9.5458   -3.9764 C   0  0  0  0  0  0  0  0  0  0  0  0
    4.8769   -9.9700   -5.0255 F   0  0  0  0  0  0  0  0  0  0  0  0
    4.4103  -10.3825   -2.9427 F   0  0  0  0  0  0  0  0  0  0  0  0
    2.8272   -9.8112   -4.3197 F   0  0  0  0  0  0  0  0  0  0  0  0
    3.6117   -7.5080   -2.5731 C   0  0  0  0  0  0  0  0  0  0  0  0
    3.7949   -6.1588   -2.2493 C   0  0  0  0  0  0  0  0  0  0  0  0
    4.2767   -3.2408   -1.6809 N   0  0  0  0  0  0  0  0  0  0  0  0
    1.0394    0.2534   -1.9674 C   0  0  0  0  0  0  0  0  0  0  0  0
    0.4054    1.0235   -2.9342 C   0  0  0  0  0  0  0  0  0  0  0  0
   -0.9372    1.2022   -2.9971 N   0  0  0  0  0  0  0  0  0  0  0  0
   -1.6891    0.5706   -2.0626 C   0  0  0  0  0  0  0  0  0  0  0  0
   -1.1496   -0.2297   -1.0608 C   0  0  0  0  0  0  0  0  0  0  0  0
   -2.0045   -0.8806   -0.1455 N   0  0  0  0  0  0  0  0  0  0  0  0
   -1.6732   -1.6920    0.9152 C   0  0  0  0  0  0  0  0  0  0  0  0
   -2.8780   -2.0905    1.4392 C   0  0  0  0  0  0  0  0  0  0  0  0
   -3.8907   -1.5281    0.7262 N   0  0  0  0  0  0  0  0  0  0  0  0
   -3.3531   -0.7842   -0.2311 N   0  0  0  0  0  0  0  0  0  0  0  0
    0.2418   -0.3820   -1.0075 C   0  0  0  0  0  0  0  0  0  0  0  0
    4.6642   -1.0776    0.0600 H   0  0  0  0  0  0  0  0  0  0  0  0
    4.9295    0.0838   -1.2274 H   0  0  0  0  0  0  0  0  0  0  0  0
    6.2956   -1.2295   -3.3834 H   0  0  0  0  0  0  0  0  0  0  0  0
    6.1421   -5.3722   -4.5855 H   0  0  0  0  0  0  0  0  0  0  0  0
    5.8259   -7.7335   -5.1530 H   0  0  0  0  0  0  0  0  0  0  0  0
    2.8969   -8.1008   -2.0036 H   0  0  0  0  0  0  0  0  0  0  0  0
    3.2191   -5.7242   -1.4327 H   0  0  0  0  0  0  0  0  0  0  0  0
    0.9673    1.5337   -3.7138 H   0  0  0  0  0  0  0  0  0  0  0  0
   -2.7588    0.7404   -2.1629 H   0  0  0  0  0  0  0  0  0  0  0  0
   -0.6584   -1.9166    1.2005 H   0  0  0  0  0  0  0  0  0  0  0  0
   -3.0667   -2.7423    2.2801 H   0  0  0  0  0  0  0  0  0  0  0  0
    0.7150   -0.9962   -0.2484 H   0  0  0  0  0  0  0  0  0  0  0  0
  1  2  2  0  0  0  0
  2  3  1  0  0  0  0
  2 20  1  0  0  0  0
  3  4  1  0  0  0  0
  4  5  1  0  0  0  0
  4 31  1  0  0  0  0
  4 32  1  0  0  0  0
  5  6  2  0  0  0  0
  5 19  1  0  0  0  0
  6  7  1  0  0  0  0
  6 33  1  0  0  0  0
  7  8  1  0  0  0  0
  8  9  1  0  0  0  0
  8 19  2  0  0  0  0
  9 10  2  0  0  0  0
  9 18  1  0  0  0  0
 10 11  1  0  0  0  0
 10 34  1  0  0  0  0
 11 12  2  0  0  0  0
 11 35  1  0  0  0  0
 12 13  1  0  0  0  0
 12 17  1  0  0  0  0
 13 14  1  0  0  0  0
 13 15  1  0  0  0  0
 13 16  1  0  0  0  0
 17 18  2  0  0  0  0
 17 36  1  0  0  0  0
 18 37  1  0  0  0  0
 20 21  2  0  0  0  0
 20 30  1  0  0  0  0
 21 22  1  0  0  0  0
 21 38  1  0  0  0  0
 22 23  2  0  0  0  0
 23 24  1  0  0  0  0
 23 39  1  0  0  0  0
 24 25  1  0  0  0  0
 24 30  2  0  0  0  0
 25 26  1  0  0  0  0
 25 29  1  0  0  0  0
 26 27  2  0  0  0  0
 26 40  1  0  0  0  0
 27 28  1  0  0  0  0
 27 41  1  0  0  0  0
 28 29  2  0  0  0  0
 30 42  1  0  0  0  0
M  END
$$$$
