
 OpenBabel01122422383D

 56 59  0  0  0  0  0  0  0  0999 V2000
    2.7832   -1.0586   -0.3010 O   0  0  0  0  0  0  0  0  0  0  0  0
    2.2011    0.0181   -0.2376 C   0  0  0  0  0  0  0  0  0  0  0  0
    0.8396    0.1555   -0.2523 N   0  0  0  0  0  0  0  0  0  0  0  0
   -0.0137   -0.9923   -0.4717 C   0  0  0  0  0  0  0  0  0  0  0  0
   -1.3675   -0.7923    0.1578 C   0  0  0  0  0  0  0  0  0  0  0  0
   -1.5980   -1.2369    1.4658 C   0  0  0  0  0  0  0  0  0  0  0  0
   -2.8383   -1.0496    2.0672 C   0  0  0  0  0  0  0  0  0  0  0  0
   -3.8492   -0.3764    1.3795 C   0  0  0  0  0  0  0  0  0  0  0  0
   -3.6426    0.1363    0.0847 C   0  0  0  0  0  0  0  0  0  0  0  0
   -4.6732    0.9598   -0.5824 C   0  0  0  0  0  0  0  0  0  0  0  0
   -5.4773    1.8505    0.1359 C   0  0  0  0  0  0  0  0  0  0  0  0
   -6.4187    2.6273   -0.5354 C   0  0  0  0  0  0  0  0  0  0  0  0
   -6.5366    2.5029   -1.9103 C   0  0  0  0  0  0  0  0  0  0  0  0
   -5.7035    1.6055   -2.5568 C   0  0  0  0  0  0  0  0  0  0  0  0
   -4.7740    0.8438   -1.9308 N   0  0  0  0  0  0  0  0  0  0  0  0
   -2.3977   -0.1183   -0.5245 C   0  0  0  0  0  0  0  0  0  0  0  0
    2.8405    1.2258   -0.1679 N   0  0  0  0  0  0  0  0  0  0  0  0
    4.2774    1.2779   -0.0423 C   0  0  0  0  0  0  0  0  0  0  0  0
    4.7477    2.6077   -0.5021 C   0  0  0  0  0  0  0  0  0  0  0  0
    5.0095    3.7533    0.2264 C   0  0  0  0  0  0  0  0  0  0  0  0
    5.5028    4.6795   -0.7039 C   0  0  0  0  0  0  0  0  0  0  0  0
    5.5494    4.1787   -1.9364 N   0  0  0  0  0  0  0  0  0  0  0  0
    5.0600    2.9242   -1.8057 N   0  0  0  0  0  0  0  0  0  0  0  0
    5.0696    2.0757   -2.9830 C   0  0  0  0  0  0  0  0  0  0  0  0
    3.7207    1.5077   -3.4274 C   0  0  0  0  0  0  0  0  0  0  0  0
    2.5741    2.4579   -3.6890 C   0  0  0  0  0  0  0  0  0  0  0  0
    2.7561    3.7586   -4.1741 C   0  0  0  0  0  0  0  0  0  0  0  0
    1.6541    4.5582   -4.4933 C   0  0  0  0  0  0  0  0  0  0  0  0
    0.3592    4.0685   -4.3341 C   0  0  0  0  0  0  0  0  0  0  0  0
    0.1618    2.7798   -3.8476 C   0  0  0  0  0  0  0  0  0  0  0  0
    1.2615    1.9798   -3.5343 C   0  0  0  0  0  0  0  0  0  0  0  0
    0.4890    1.0472   -0.5709 H   0  0  0  0  0  0  0  0  0  0  0  0
    0.4593   -1.8987   -0.0704 H   0  0  0  0  0  0  0  0  0  0  0  0
   -0.1091   -1.1415   -1.5531 H   0  0  0  0  0  0  0  0  0  0  0  0
   -0.8074   -1.7382    2.0217 H   0  0  0  0  0  0  0  0  0  0  0  0
   -3.0174   -1.4134    3.0750 H   0  0  0  0  0  0  0  0  0  0  0  0
   -4.8095   -0.2496    1.8750 H   0  0  0  0  0  0  0  0  0  0  0  0
   -5.3651    1.9621    1.2094 H   0  0  0  0  0  0  0  0  0  0  0  0
   -7.0408    3.3266    0.0137 H   0  0  0  0  0  0  0  0  0  0  0  0
   -7.2576    3.0933   -2.4646 H   0  0  0  0  0  0  0  0  0  0  0  0
   -5.7608    1.4726   -3.6338 H   0  0  0  0  0  0  0  0  0  0  0  0
   -2.2257    0.2372   -1.5402 H   0  0  0  0  0  0  0  0  0  0  0  0
    2.3170    1.9918    0.2274 H   0  0  0  0  0  0  0  0  0  0  0  0
    4.7490    0.4619   -0.5994 H   0  0  0  0  0  0  0  0  0  0  0  0
    4.5169    1.1315    1.0173 H   0  0  0  0  0  0  0  0  0  0  0  0
    4.8888    3.8900    1.2915 H   0  0  0  0  0  0  0  0  0  0  0  0
    5.8439    5.6930   -0.5366 H   0  0  0  0  0  0  0  0  0  0  0  0
    5.7661    1.2555   -2.7705 H   0  0  0  0  0  0  0  0  0  0  0  0
    5.5150    2.6525   -3.8037 H   0  0  0  0  0  0  0  0  0  0  0  0
    3.4019    0.7598   -2.6966 H   0  0  0  0  0  0  0  0  0  0  0  0
    3.8860    0.9499   -4.3586 H   0  0  0  0  0  0  0  0  0  0  0  0
    3.7518    4.1718   -4.3201 H   0  0  0  0  0  0  0  0  0  0  0  0
    1.8099    5.5631   -4.8780 H   0  0  0  0  0  0  0  0  0  0  0  0
   -0.4938    4.6876   -4.5986 H   0  0  0  0  0  0  0  0  0  0  0  0
   -0.8462    2.3907   -3.7298 H   0  0  0  0  0  0  0  0  0  0  0  0
    1.0897    0.9645   -3.1833 H   0  0  0  0  0  0  0  0  0  0  0  0
  1  2  2  0  0  0  0
  2  3  1  0  0  0  0
  2 17  1  0  0  0  0
  3  4  1  0  0  0  0
  3 32  1  0  0  0  0
  4  5  1  0  0  0  0
  4 33  1  0  0  0  0
  4 34  1  0  0  0  0
  5  6  2  0  0  0  0
  5 16  1  0  0  0  0
  6  7  1  0  0  0  0
  6 35  1  0  0  0  0
  7  8  2  0  0  0  0
  7 36  1  0  0  0  0
  8  9  1  0  0  0  0
  8 37  1  0  0  0  0
  9 10  1  0  0  0  0
  9 16  2  0  0  0  0
 10 11  2  0  0  0  0
 10 15  1  0  0  0  0
 11 12  1  0  0  0  0
 11 38  1  0  0  0  0
 12 13  2  0  0  0  0
 12 39  1  0  0  0  0
 13 14  1  0  0  0  0
 13 40  1  0  0  0  0
 14 15  2  0  0  0  0
 14 41  1  0  0  0  0
 16 42  1  0  0  0  0
 17 18  1  0  0  0  0
 17 43  1  0  0  0  0
 18 19  1  0  0  0  0
 18 44  1  0  0  0  0
 18 45  1  0  0  0  0
 19 20  2  0  0  0  0
 19 23  1  0  0  0  0
 20 21  1  0  0  0  0
 20 46  1  0  0  0  0
 21 22  2  0  0  0  0
 21 47  1  0  0  0  0
 22 23  1  0  0  0  0
 23 24  1  0  0  0  0
 24 25  1  0  0  0  0
 24 48  1  0  0  0  0
 24 49  1  0  0  0  0
 25 26  1  0  0  0  0
 25 50  1  0  0  0  0
 25 51  1  0  0  0  0
 26 27  2  0  0  0  0
 26 31  1  0  0  0  0
 27 28  1  0  0  0  0
 27 52  1  0  0  0  0
 28 29  2  0  0  0  0
 28 53  1  0  0  0  0
 29 30  1  0  0  0  0
 29 54  1  0  0  0  0
 30 31  2  0  0  0  0
 30 55  1  0  0  0  0
 31 56  1  0  0  0  0
M  END
$$$$
