
 OpenBabel01122422383D

 46 49  0  0  0  0  0  0  0  0999 V2000
    8.4270   -5.3029    1.9660 C   0  0  0  0  0  0  0  0  0  0  0  0
    7.7471   -4.0500    1.8528 O   0  0  0  0  0  0  0  0  0  0  0  0
    7.3413   -3.7366    0.5937 C   0  0  0  0  0  0  0  0  0  0  0  0
    7.5319   -4.4002   -0.4121 O   0  0  0  0  0  0  0  0  0  0  0  0
    6.5945   -2.4508    0.6390 C   0  0  0  0  0  0  0  0  0  0  0  0
    7.2522   -1.3985    1.2888 C   0  0  0  0  0  0  0  0  0  0  0  0
    6.7122   -0.1196    1.2762 C   0  0  0  0  0  0  0  0  0  0  0  0
    5.5191    0.1560    0.6429 C   0  0  0  0  0  0  0  0  0  0  0  0
    5.1324    1.4446    0.6504 N   0  0  0  0  0  0  0  0  0  0  0  0
    3.9747    1.7724    0.0502 C   0  0  0  0  0  0  0  0  0  0  0  0
    3.1361    0.8476   -0.5182 C   0  0  0  0  0  0  0  0  0  0  0  0
    3.5292   -0.4875   -0.4831 C   0  0  0  0  0  0  0  0  0  0  0  0
    4.7857   -0.8985    0.0427 C   0  0  0  0  0  0  0  0  0  0  0  0
    5.3347   -2.2483    0.0094 C   0  0  0  0  0  0  0  0  0  0  0  0
    4.5927   -3.3754   -0.6550 C   0  0  0  0  0  0  0  0  0  0  0  0
    3.9231   -3.1987   -1.8786 C   0  0  0  0  0  0  0  0  0  0  0  0
    3.1330   -4.2025   -2.4461 C   0  0  0  0  0  0  0  0  0  0  0  0
    3.0955   -5.4804   -1.8864 C   0  0  0  0  0  0  0  0  0  0  0  0
    2.3554   -6.5957   -2.5902 C   0  0  0  0  0  0  0  0  0  0  0  0
    3.1591   -7.1504   -3.6798 N   0  0  0  0  0  0  0  0  0  0  0  0
    4.0531   -8.1720   -3.4086 C   0  0  0  0  0  0  0  0  0  0  0  0
    4.9107   -8.6063   -4.3449 C   0  0  0  0  0  0  0  0  0  0  0  0
    4.9351   -7.9888   -5.6434 C   0  0  0  0  0  0  0  0  0  0  0  0
    4.0765   -7.0051   -5.9406 C   0  0  0  0  0  0  0  0  0  0  0  0
    3.0917   -6.5366   -4.9303 C   0  0  0  0  0  0  0  0  0  0  0  0
    2.3043   -5.6445   -5.2402 O   0  0  0  0  0  0  0  0  0  0  0  0
    3.8264   -5.7116   -0.7204 C   0  0  0  0  0  0  0  0  0  0  0  0
    4.5184   -4.6647   -0.0933 C   0  0  0  0  0  0  0  0  0  0  0  0
    8.9868   -5.3045    2.9060 H   0  0  0  0  0  0  0  0  0  0  0  0
    9.1355   -5.4647    1.1481 H   0  0  0  0  0  0  0  0  0  0  0  0
    7.6884   -6.1100    2.0003 H   0  0  0  0  0  0  0  0  0  0  0  0
    8.2074   -1.5589    1.7853 H   0  0  0  0  0  0  0  0  0  0  0  0
    7.2481    0.6909    1.7657 H   0  0  0  0  0  0  0  0  0  0  0  0
    3.7312    2.8306    0.0535 H   0  0  0  0  0  0  0  0  0  0  0  0
    2.2012    1.1461   -0.9787 H   0  0  0  0  0  0  0  0  0  0  0  0
    2.8223   -1.2060   -0.8861 H   0  0  0  0  0  0  0  0  0  0  0  0
    3.9883   -2.2575   -2.4206 H   0  0  0  0  0  0  0  0  0  0  0  0
    2.5753   -3.9836   -3.3555 H   0  0  0  0  0  0  0  0  0  0  0  0
    1.4076   -6.2134   -2.9872 H   0  0  0  0  0  0  0  0  0  0  0  0
    2.0927   -7.3927   -1.8857 H   0  0  0  0  0  0  0  0  0  0  0  0
    4.0403   -8.6000   -2.4120 H   0  0  0  0  0  0  0  0  0  0  0  0
    5.6179   -9.3996   -4.1279 H   0  0  0  0  0  0  0  0  0  0  0  0
    5.6733   -8.3252   -6.3607 H   0  0  0  0  0  0  0  0  0  0  0  0
    4.0729   -6.4978   -6.8980 H   0  0  0  0  0  0  0  0  0  0  0  0
    3.8776   -6.7092   -0.2906 H   0  0  0  0  0  0  0  0  0  0  0  0
    5.0299   -4.8981    0.8370 H   0  0  0  0  0  0  0  0  0  0  0  0
  1  2  1  0  0  0  0
  1 29  1  0  0  0  0
  1 30  1  0  0  0  0
  1 31  1  0  0  0  0
  2  3  1  0  0  0  0
  3  4  2  0  0  0  0
  3  5  1  0  0  0  0
  5  6  2  0  0  0  0
  5 14  1  0  0  0  0
  6  7  1  0  0  0  0
  6 32  1  0  0  0  0
  7  8  2  0  0  0  0
  7 33  1  0  0  0  0
  8  9  1  0  0  0  0
  8 13  1  0  0  0  0
  9 10  2  0  0  0  0
 10 11  1  0  0  0  0
 10 34  1  0  0  0  0
 11 12  2  0  0  0  0
 11 35  1  0  0  0  0
 12 13  1  0  0  0  0
 12 36  1  0  0  0  0
 13 14  2  0  0  0  0
 14 15  1  0  0  0  0
 15 16  2  0  0  0  0
 15 28  1  0  0  0  0
 16 17  1  0  0  0  0
 16 37  1  0  0  0  0
 17 18  2  0  0  0  0
 17 38  1  0  0  0  0
 18 19  1  0  0  0  0
 18 27  1  0  0  0  0
 19 20  1  0  0  0  0
 19 39  1  0  0  0  0
 19 40  1  0  0  0  0
 20 21  1  0  0  0  0
 20 25  1  0  0  0  0
 21 22  2  0  0  0  0
 21 41  1  0  0  0  0
 22 23  1  0  0  0  0
 22 42  1  0  0  0  0
 23 24  2  0  0  0  0
 23 43  1  0  0  0  0
 24 25  1  0  0  0  0
 24 44  1  0  0  0  0
 25 26  2  0  0  0  0
 27 28  2  0  0  0  0
 27 45  1  0  0  0  0
 28 46  1  0  0  0  0
M  END
$$$$
