
 OpenBabel01122422383D

 43 46  0  0  0  0  0  0  0  0999 V2000
    2.5034    0.9823   -0.9682 O   0  0  0  0  0  0  0  0  0  0  0  0
    2.2555    0.0535   -0.2053 C   0  0  0  0  0  0  0  0  0  0  0  0
    2.9681   -1.2937   -0.3728 C   0  0  0  0  0  0  0  0  0  0  0  0
    2.0799   -2.3939   -0.5549 O   0  0  0  0  0  0  0  0  0  0  0  0
    1.5589   -2.8859    0.5891 C   0  0  0  0  0  0  0  0  0  0  0  0
    1.7794   -2.4609    1.7100 O   0  0  0  0  0  0  0  0  0  0  0  0
    0.5912   -3.9646    0.3004 C   0  0  0  0  0  0  0  0  0  0  0  0
   -0.1007   -4.5128    1.3902 C   0  0  0  0  0  0  0  0  0  0  0  0
   -1.0856   -5.4721    1.1756 C   0  0  0  0  0  0  0  0  0  0  0  0
   -1.3483   -5.9058   -0.1293 C   0  0  0  0  0  0  0  0  0  0  0  0
   -2.3540   -6.8556   -0.3451 N   0  0  0  0  0  0  0  0  0  0  0  0
   -3.1439   -7.3552    0.6526 C   0  0  0  0  0  0  0  0  0  0  0  0
   -4.0479   -8.1559    0.4405 O   0  0  0  0  0  0  0  0  0  0  0  0
   -2.8618   -6.8782    2.0292 C   0  0  0  0  0  0  0  0  0  0  0  0
   -1.8790   -6.0037    2.2806 C   0  0  0  0  0  0  0  0  0  0  0  0
   -0.6377   -5.3785   -1.2049 C   0  0  0  0  0  0  0  0  0  0  0  0
   -0.9000   -5.7925   -2.4534 F   0  0  0  0  0  0  0  0  0  0  0  0
    0.3234   -4.3992   -1.0035 C   0  0  0  0  0  0  0  0  0  0  0  0
    1.3883    0.1165    0.8728 N   0  0  0  0  0  0  0  0  0  0  0  0
    0.5589    1.2099    1.2013 C   0  0  0  0  0  0  0  0  0  0  0  0
    0.2775    2.2643    0.3415 C   0  0  0  0  0  0  0  0  0  0  0  0
   -0.5017    3.3269    0.6605 N   0  0  0  0  0  0  0  0  0  0  0  0
   -1.0488    3.3609    1.8836 C   0  0  0  0  0  0  0  0  0  0  0  0
   -1.8503    4.4382    2.2313 C   0  0  0  0  0  0  0  0  0  0  0  0
   -2.4819    4.5103    3.4748 C   0  0  0  0  0  0  0  0  0  0  0  0
   -2.2919    3.4954    4.4054 C   0  0  0  0  0  0  0  0  0  0  0  0
   -1.4709    2.4127    4.0897 C   0  0  0  0  0  0  0  0  0  0  0  0
   -0.8530    2.3305    2.8278 C   0  0  0  0  0  0  0  0  0  0  0  0
   -0.0387    1.2468    2.4591 C   0  0  0  0  0  0  0  0  0  0  0  0
    3.6561   -1.4642    0.4625 H   0  0  0  0  0  0  0  0  0  0  0  0
    3.5788   -1.2354   -1.2802 H   0  0  0  0  0  0  0  0  0  0  0  0
    0.1144   -4.1656    2.4004 H   0  0  0  0  0  0  0  0  0  0  0  0
   -2.5478   -7.1749   -1.2879 H   0  0  0  0  0  0  0  0  0  0  0  0
   -3.4987   -7.2736    2.8115 H   0  0  0  0  0  0  0  0  0  0  0  0
   -1.6820   -5.6621    3.2908 H   0  0  0  0  0  0  0  0  0  0  0  0
    0.8297   -3.9778   -1.8683 H   0  0  0  0  0  0  0  0  0  0  0  0
    1.4303   -0.6490    1.5458 H   0  0  0  0  0  0  0  0  0  0  0  0
    0.6469    2.2944   -0.6785 H   0  0  0  0  0  0  0  0  0  0  0  0
   -1.9938    5.2378    1.5082 H   0  0  0  0  0  0  0  0  0  0  0  0
   -3.1227    5.3572    3.7063 H   0  0  0  0  0  0  0  0  0  0  0  0
   -2.7842    3.5459    5.3733 H   0  0  0  0  0  0  0  0  0  0  0  0
   -1.3223    1.6304    4.8302 H   0  0  0  0  0  0  0  0  0  0  0  0
    0.1340    0.4391    3.1710 H   0  0  0  0  0  0  0  0  0  0  0  0
  1  2  2  0  0  0  0
  2  3  1  0  0  0  0
  2 19  1  0  0  0  0
  3  4  1  0  0  0  0
  3 30  1  0  0  0  0
  3 31  1  0  0  0  0
  4  5  1  0  0  0  0
  5  6  2  0  0  0  0
  5  7  1  0  0  0  0
  7  8  2  0  0  0  0
  7 18  1  0  0  0  0
  8  9  1  0  0  0  0
  8 32  1  0  0  0  0
  9 10  2  0  0  0  0
  9 15  1  0  0  0  0
 10 11  1  0  0  0  0
 10 16  1  0  0  0  0
 11 12  1  0  0  0  0
 11 33  1  0  0  0  0
 12 13  2  0  0  0  0
 12 14  1  0  0  0  0
 14 15  2  0  0  0  0
 14 34  1  0  0  0  0
 15 35  1  0  0  0  0
 16 17  1  0  0  0  0
 16 18  2  0  0  0  0
 18 36  1  0  0  0  0
 19 20  1  0  0  0  0
 19 37  1  0  0  0  0
 20 21  2  0  0  0  0
 20 29  1  0  0  0  0
 21 22  1  0  0  0  0
 21 38  1  0  0  0  0
 22 23  2  0  0  0  0
 23 24  1  0  0  0  0
 23 28  1  0  0  0  0
 24 25  2  0  0  0  0
 24 39  1  0  0  0  0
 25 26  1  0  0  0  0
 25 40  1  0  0  0  0
 26 27  2  0  0  0  0
 26 41  1  0  0  0  0
 27 28  1  0  0  0  0
 27 42  1  0  0  0  0
 28 29  2  0  0  0  0
 29 43  1  0  0  0  0
M  END
$$$$
