
 OpenBabel01122422383D

 46 49  0  0  0  0  0  0  0  0999 V2000
    1.1106   -0.4207   -0.1221 O   0  0  0  0  0  0  0  0  0  0  0  0
    2.2193    0.0140    0.1671 C   0  0  0  0  0  0  0  0  0  0  0  0
    2.7828    1.1946   -0.2953 N   0  0  0  0  0  0  0  0  0  0  0  0
    2.1761    2.0827   -1.2095 C   0  0  0  0  0  0  0  0  0  0  0  0
    0.8021    2.0637   -1.4891 C   0  0  0  0  0  0  0  0  0  0  0  0
    0.2581    2.8992   -2.4627 C   0  0  0  0  0  0  0  0  0  0  0  0
    1.0873    3.7648   -3.1577 C   0  0  0  0  0  0  0  0  0  0  0  0
    0.5742    4.5400   -4.1212 F   0  0  0  0  0  0  0  0  0  0  0  0
    2.4463    3.8344   -2.8673 C   0  0  0  0  0  0  0  0  0  0  0  0
    2.9893    3.0041   -1.8809 C   0  0  0  0  0  0  0  0  0  0  0  0
    3.0972   -0.8027    1.0621 C   0  0  0  0  0  0  0  0  0  0  0  0
    2.6446   -2.0597    1.4470 C   0  0  0  0  0  0  0  0  0  0  0  0
    3.4234   -2.7918    2.3230 C   0  0  0  0  0  0  0  0  0  0  0  0
    4.5995   -2.2246    2.8002 C   0  0  0  0  0  0  0  0  0  0  0  0
    5.0043   -0.9643    2.3515 C   0  0  0  0  0  0  0  0  0  0  0  0
    6.1113   -0.3815    2.9642 N   0  0  0  0  0  0  0  0  0  0  0  0
    6.8679    0.5793    2.1548 C   0  0  0  0  0  0  0  0  0  0  0  0
    8.1186    1.0956    2.8226 C   0  0  0  0  0  0  0  0  0  0  0  0
    8.7765    0.3888    3.7565 N   0  0  0  0  0  0  0  0  0  0  0  0
    9.7089    1.2769    4.1881 N   0  0  0  0  0  0  0  0  0  0  0  0
   10.5700    0.9935    5.2796 C   0  0  0  0  0  0  0  0  0  0  0  0
   10.4902   -0.2537    5.9188 C   0  0  0  0  0  0  0  0  0  0  0  0
   11.3163   -0.5388    7.0084 C   0  0  0  0  0  0  0  0  0  0  0  0
   12.2214    0.4159    7.4675 C   0  0  0  0  0  0  0  0  0  0  0  0
   12.3042    1.6568    6.8383 C   0  0  0  0  0  0  0  0  0  0  0  0
   11.4838    1.9494    5.7452 C   0  0  0  0  0  0  0  0  0  0  0  0
    9.6260    2.4182    3.4266 C   0  0  0  0  0  0  0  0  0  0  0  0
    8.6422    2.3319    2.5607 N   0  0  0  0  0  0  0  0  0  0  0  0
    4.2748   -0.2508    1.4679 N   0  0  0  0  0  0  0  0  0  0  0  0
    3.7545    1.3415   -0.0371 H   0  0  0  0  0  0  0  0  0  0  0  0
    0.1236    1.4066   -0.9538 H   0  0  0  0  0  0  0  0  0  0  0  0
   -0.8043    2.8635   -2.6880 H   0  0  0  0  0  0  0  0  0  0  0  0
    3.0737    4.5178   -3.4273 H   0  0  0  0  0  0  0  0  0  0  0  0
    4.0558    3.0559   -1.6805 H   0  0  0  0  0  0  0  0  0  0  0  0
    1.6997   -2.4513    1.0827 H   0  0  0  0  0  0  0  0  0  0  0  0
    3.1064   -3.7768    2.6517 H   0  0  0  0  0  0  0  0  0  0  0  0
    5.1978   -2.7715    3.5231 H   0  0  0  0  0  0  0  0  0  0  0  0
    6.7509   -1.0438    3.3872 H   0  0  0  0  0  0  0  0  0  0  0  0
    6.2387    1.4410    1.9017 H   0  0  0  0  0  0  0  0  0  0  0  0
    7.1761    0.1015    1.2147 H   0  0  0  0  0  0  0  0  0  0  0  0
    9.7862   -1.0133    5.5841 H   0  0  0  0  0  0  0  0  0  0  0  0
   11.2490   -1.5053    7.5020 H   0  0  0  0  0  0  0  0  0  0  0  0
   12.8602    0.1941    8.3190 H   0  0  0  0  0  0  0  0  0  0  0  0
   13.0071    2.4018    7.2043 H   0  0  0  0  0  0  0  0  0  0  0  0
   11.5790    2.9325    5.2944 H   0  0  0  0  0  0  0  0  0  0  0  0
   10.2775    3.2696    3.5500 H   0  0  0  0  0  0  0  0  0  0  0  0
  1  2  2  0  0  0  0
  2  3  1  0  0  0  0
  2 11  1  0  0  0  0
  3  4  1  0  0  0  0
  3 30  1  0  0  0  0
  4  5  2  0  0  0  0
  4 10  1  0  0  0  0
  5  6  1  0  0  0  0
  5 31  1  0  0  0  0
  6  7  2  0  0  0  0
  6 32  1  0  0  0  0
  7  8  1  0  0  0  0
  7  9  1  0  0  0  0
  9 10  2  0  0  0  0
  9 33  1  0  0  0  0
 10 34  1  0  0  0  0
 11 12  2  0  0  0  0
 11 29  1  0  0  0  0
 12 13  1  0  0  0  0
 12 35  1  0  0  0  0
 13 14  2  0  0  0  0
 13 36  1  0  0  0  0
 14 15  1  0  0  0  0
 14 37  1  0  0  0  0
 15 16  1  0  0  0  0
 15 29  2  0  0  0  0
 16 17  1  0  0  0  0
 16 38  1  0  0  0  0
 17 18  1  0  0  0  0
 17 39  1  0  0  0  0
 17 40  1  0  0  0  0
 18 19  2  0  0  0  0
 18 28  1  0  0  0  0
 19 20  1  0  0  0  0
 20 21  1  0  0  0  0
 20 27  1  0  0  0  0
 21 22  2  0  0  0  0
 21 26  1  0  0  0  0
 22 23  1  0  0  0  0
 22 41  1  0  0  0  0
 23 24  2  0  0  0  0
 23 42  1  0  0  0  0
 24 25  1  0  0  0  0
 24 43  1  0  0  0  0
 25 26  2  0  0  0  0
 25 44  1  0  0  0  0
 26 45  1  0  0  0  0
 27 28  2  0  0  0  0
 27 46  1  0  0  0  0
M  END
$$$$
