
 OpenBabel01122422383D

 48 51  0  0  0  0  0  0  0  0999 V2000
    0.8078    0.0300    0.3396 O   0  0  0  0  0  0  0  0  0  0  0  0
    1.9737   -0.0462   -0.0396 C   0  0  0  0  0  0  0  0  0  0  0  0
    2.6879    0.9448   -0.7131 N   0  0  0  0  0  0  0  0  0  0  0  0
    2.1832    2.2248   -1.0232 C   0  0  0  0  0  0  0  0  0  0  0  0
    1.0691    2.7848   -0.3819 C   0  0  0  0  0  0  0  0  0  0  0  0
    0.5673    4.0167   -0.7768 C   0  0  0  0  0  0  0  0  0  0  0  0
    1.1641    4.7149   -1.8106 C   0  0  0  0  0  0  0  0  0  0  0  0
    2.3075    4.1954   -2.4440 C   0  0  0  0  0  0  0  0  0  0  0  0
    2.9165    4.9303   -3.6204 C   0  0  0  0  0  0  0  0  0  0  0  0
    2.9488    4.1193   -4.7927 O   0  0  0  0  0  0  0  0  0  0  0  0
    1.6464    3.7867   -5.2751 C   0  0  0  0  0  0  0  0  0  0  0  0
    1.7788    2.9671   -6.5313 C   0  0  0  0  0  0  0  0  0  0  0  0
    1.2853    1.6550   -6.5784 C   0  0  0  0  0  0  0  0  0  0  0  0
    1.3803    0.9046   -7.7506 C   0  0  0  0  0  0  0  0  0  0  0  0
    1.9677    1.4587   -8.8865 C   0  0  0  0  0  0  0  0  0  0  0  0
    2.4697    2.7587   -8.8481 C   0  0  0  0  0  0  0  0  0  0  0  0
    2.3772    3.5098   -7.6762 C   0  0  0  0  0  0  0  0  0  0  0  0
    2.8227    2.9605   -2.0242 C   0  0  0  0  0  0  0  0  0  0  0  0
    2.7332   -1.2786    0.2870 C   0  0  0  0  0  0  0  0  0  0  0  0
    3.7617   -1.7564   -0.5350 C   0  0  0  0  0  0  0  0  0  0  0  0
    4.6558   -2.7146   -0.0438 C   0  0  0  0  0  0  0  0  0  0  0  0
    4.6245   -3.0631    1.3112 C   0  0  0  0  0  0  0  0  0  0  0  0
    3.6094   -2.5541    2.1206 C   0  0  0  0  0  0  0  0  0  0  0  0
    2.5781   -1.8274    1.5560 C   0  0  0  0  0  0  0  0  0  0  0  0
    1.3850   -1.6910    2.3903 C   0  0  0  0  0  0  0  0  0  0  0  0
    1.4465   -1.6162    3.6823 N   0  0  0  0  0  0  0  0  0  0  0  0
    2.6958   -1.7749    4.2206 N   0  0  0  0  0  0  0  0  0  0  0  0
    3.6935   -2.5137    3.5992 C   0  0  0  0  0  0  0  0  0  0  0  0
    4.6400   -2.9940    4.2002 O   0  0  0  0  0  0  0  0  0  0  0  0
    3.6195    0.7453   -1.0326 H   0  0  0  0  0  0  0  0  0  0  0  0
    0.5863    2.2782    0.4475 H   0  0  0  0  0  0  0  0  0  0  0  0
   -0.3120    4.4328   -0.2807 H   0  0  0  0  0  0  0  0  0  0  0  0
    0.7321    5.6562   -2.1419 H   0  0  0  0  0  0  0  0  0  0  0  0
    3.9466    5.1964   -3.3681 H   0  0  0  0  0  0  0  0  0  0  0  0
    2.3881    5.8654   -3.8337 H   0  0  0  0  0  0  0  0  0  0  0  0
    1.0675    4.6940   -5.4863 H   0  0  0  0  0  0  0  0  0  0  0  0
    1.1079    3.2036   -4.5212 H   0  0  0  0  0  0  0  0  0  0  0  0
    0.8220    1.2095   -5.7005 H   0  0  0  0  0  0  0  0  0  0  0  0
    0.9921   -0.1099   -7.7785 H   0  0  0  0  0  0  0  0  0  0  0  0
    2.0351    0.8771   -9.8018 H   0  0  0  0  0  0  0  0  0  0  0  0
    2.9335    3.1886   -9.7323 H   0  0  0  0  0  0  0  0  0  0  0  0
    2.7785    4.5209   -7.6521 H   0  0  0  0  0  0  0  0  0  0  0  0
    3.6869    2.5504   -2.5499 H   0  0  0  0  0  0  0  0  0  0  0  0
    3.8834   -1.3849   -1.5503 H   0  0  0  0  0  0  0  0  0  0  0  0
    5.4320   -3.1156   -0.6922 H   0  0  0  0  0  0  0  0  0  0  0  0
    5.4024   -3.6937    1.7356 H   0  0  0  0  0  0  0  0  0  0  0  0
    0.3964   -1.7215    1.8985 H   0  0  0  0  0  0  0  0  0  0  0  0
    2.7598   -1.6348    5.2231 H   0  0  0  0  0  0  0  0  0  0  0  0
  1  2  2  0  0  0  0
  2  3  1  0  0  0  0
  2 19  1  0  0  0  0
  3  4  1  0  0  0  0
  3 30  1  0  0  0  0
  4  5  2  0  0  0  0
  4 18  1  0  0  0  0
  5  6  1  0  0  0  0
  5 31  1  0  0  0  0
  6  7  2  0  0  0  0
  6 32  1  0  0  0  0
  7  8  1  0  0  0  0
  7 33  1  0  0  0  0
  8  9  1  0  0  0  0
  8 18  2  0  0  0  0
  9 10  1  0  0  0  0
  9 34  1  0  0  0  0
  9 35  1  0  0  0  0
 10 11  1  0  0  0  0
 11 12  1  0  0  0  0
 11 36  1  0  0  0  0
 11 37  1  0  0  0  0
 12 13  2  0  0  0  0
 12 17  1  0  0  0  0
 13 14  1  0  0  0  0
 13 38  1  0  0  0  0
 14 15  2  0  0  0  0
 14 39  1  0  0  0  0
 15 16  1  0  0  0  0
 15 40  1  0  0  0  0
 16 17  2  0  0  0  0
 16 41  1  0  0  0  0
 17 42  1  0  0  0  0
 18 43  1  0  0  0  0
 19 20  2  0  0  0  0
 19 24  1  0  0  0  0
 20 21  1  0  0  0  0
 20 44  1  0  0  0  0
 21 22  2  0  0  0  0
 21 45  1  0  0  0  0
 22 23  1  0  0  0  0
 22 46  1  0  0  0  0
 23 24  2  0  0  0  0
 23 28  1  0  0  0  0
 24 25  1  0  0  0  0
 25 26  2  0  0  0  0
 25 47  1  0  0  0  0
 26 27  1  0  0  0  0
 27 28  1  0  0  0  0
 27 48  1  0  0  0  0
 28 29  2  0  0  0  0
M  END
$$$$
