
 OpenBabel01122422383D

 48 51  0  0  0  0  0  0  0  0999 V2000
    2.1317    0.0724   -0.0645 C   0  0  0  0  0  0  0  0  0  0  0  0
    0.6824    0.0606   -0.0739 N   0  0  0  0  0  0  0  0  0  0  0  0
   -0.0639   -1.0959   -0.0778 C   0  0  0  0  0  0  0  0  0  0  0  0
   -1.4021   -0.7619   -0.0201 C   0  0  0  0  0  0  0  0  0  0  0  0
   -2.5792   -1.6330    0.0457 C   0  0  0  0  0  0  0  0  0  0  0  0
   -3.6807   -1.2011   -0.2820 O   0  0  0  0  0  0  0  0  0  0  0  0
   -2.4557   -3.0172    0.5998 C   0  0  0  0  0  0  0  0  0  0  0  0
   -1.5962   -3.2111    1.6983 C   0  0  0  0  0  0  0  0  0  0  0  0
   -1.4490   -4.4645    2.2743 C   0  0  0  0  0  0  0  0  0  0  0  0
   -2.1885   -5.5359    1.7858 C   0  0  0  0  0  0  0  0  0  0  0  0
   -3.0901   -5.3692    0.7233 C   0  0  0  0  0  0  0  0  0  0  0  0
   -3.8471   -6.4691    0.2881 C   0  0  0  0  0  0  0  0  0  0  0  0
   -4.7662   -6.3449   -0.7513 C   0  0  0  0  0  0  0  0  0  0  0  0
   -4.9282   -5.1193   -1.3775 C   0  0  0  0  0  0  0  0  0  0  0  0
   -4.1737   -4.0179   -0.9642 C   0  0  0  0  0  0  0  0  0  0  0  0
   -3.2420   -4.1011    0.1039 C   0  0  0  0  0  0  0  0  0  0  0  0
   -1.4409    0.6595   -0.0501 C   0  0  0  0  0  0  0  0  0  0  0  0
   -0.1480    1.1690   -0.0743 C   0  0  0  0  0  0  0  0  0  0  0  0
    0.2858    2.5623   -0.0711 C   0  0  0  0  0  0  0  0  0  0  0  0
    1.4575    2.9109    0.0253 O   0  0  0  0  0  0  0  0  0  0  0  0
   -0.7438    3.4729   -0.1767 N   0  0  0  0  0  0  0  0  0  0  0  0
   -0.5557    4.9029   -0.1607 C   0  0  0  0  0  0  0  0  0  0  0  0
   -0.4806    5.4681   -1.5477 C   0  0  0  0  0  0  0  0  0  0  0  0
    0.7485    5.5921   -2.2055 C   0  0  0  0  0  0  0  0  0  0  0  0
    0.7814    6.1126   -3.4918 C   0  0  0  0  0  0  0  0  0  0  0  0
    1.9525    6.2764   -4.1656 O   0  0  0  0  0  0  0  0  0  0  0  0
   -0.4126    6.4736   -4.0958 C   0  0  0  0  0  0  0  0  0  0  0  0
   -1.6191    6.3629   -3.4946 N   0  0  0  0  0  0  0  0  0  0  0  0
   -1.6239    5.8631   -2.2386 C   0  0  0  0  0  0  0  0  0  0  0  0
    2.5008   -0.9582   -0.0723 H   0  0  0  0  0  0  0  0  0  0  0  0
    2.4723    0.5667    0.8484 H   0  0  0  0  0  0  0  0  0  0  0  0
    2.4848    0.5896   -0.9589 H   0  0  0  0  0  0  0  0  0  0  0  0
    0.4239   -2.0629   -0.1046 H   0  0  0  0  0  0  0  0  0  0  0  0
   -1.0418   -2.3790    2.1290 H   0  0  0  0  0  0  0  0  0  0  0  0
   -0.7710   -4.6057    3.1118 H   0  0  0  0  0  0  0  0  0  0  0  0
   -2.0682   -6.5084    2.2574 H   0  0  0  0  0  0  0  0  0  0  0  0
   -3.7343   -7.4404    0.7661 H   0  0  0  0  0  0  0  0  0  0  0  0
   -5.3534   -7.2030   -1.0663 H   0  0  0  0  0  0  0  0  0  0  0  0
   -5.6488   -5.0087   -2.1859 H   0  0  0  0  0  0  0  0  0  0  0  0
   -4.3405   -3.0788   -1.4888 H   0  0  0  0  0  0  0  0  0  0  0  0
   -2.3588    1.2326   -0.0218 H   0  0  0  0  0  0  0  0  0  0  0  0
   -1.6683    3.1352   -0.3915 H   0  0  0  0  0  0  0  0  0  0  0  0
    0.3426    5.1614    0.4111 H   0  0  0  0  0  0  0  0  0  0  0  0
   -1.4101    5.3347    0.3731 H   0  0  0  0  0  0  0  0  0  0  0  0
    1.6593    5.2815   -1.7021 H   0  0  0  0  0  0  0  0  0  0  0  0
    2.6826    6.0145   -3.5800 H   0  0  0  0  0  0  0  0  0  0  0  0
   -0.4263    6.8758   -5.1045 H   0  0  0  0  0  0  0  0  0  0  0  0
   -2.6123    5.7889   -1.7903 H   0  0  0  0  0  0  0  0  0  0  0  0
  1  2  1  0  0  0  0
  1 30  1  0  0  0  0
  1 31  1  0  0  0  0
  1 32  1  0  0  0  0
  2  3  1  0  0  0  0
  2 18  1  0  0  0  0
  3  4  2  0  0  0  0
  3 33  1  0  0  0  0
  4  5  1  0  0  0  0
  4 17  1  0  0  0  0
  5  6  2  0  0  0  0
  5  7  1  0  0  0  0
  7  8  2  0  0  0  0
  7 16  1  0  0  0  0
  8  9  1  0  0  0  0
  8 34  1  0  0  0  0
  9 10  2  0  0  0  0
  9 35  1  0  0  0  0
 10 11  1  0  0  0  0
 10 36  1  0  0  0  0
 11 12  2  0  0  0  0
 11 16  1  0  0  0  0
 12 13  1  0  0  0  0
 12 37  1  0  0  0  0
 13 14  2  0  0  0  0
 13 38  1  0  0  0  0
 14 15  1  0  0  0  0
 14 39  1  0  0  0  0
 15 16  2  0  0  0  0
 15 40  1  0  0  0  0
 17 18  2  0  0  0  0
 17 41  1  0  0  0  0
 18 19  1  0  0  0  0
 19 20  2  0  0  0  0
 19 21  1  0  0  0  0
 21 22  1  0  0  0  0
 21 42  1  0  0  0  0
 22 23  1  0  0  0  0
 22 43  1  0  0  0  0
 22 44  1  0  0  0  0
 23 24  2  0  0  0  0
 23 29  1  0  0  0  0
 24 25  1  0  0  0  0
 24 45  1  0  0  0  0
 25 26  1  0  0  0  0
 25 27  2  0  0  0  0
 26 46  1  0  0  0  0
 27 28  1  0  0  0  0
 27 47  1  0  0  0  0
 28 29  2  0  0  0  0
 29 48  1  0  0  0  0
M  END
$$$$
