
 OpenBabel01122422353D

 44 47  0  0  0  0  0  0  0  0999 V2000
    3.0421   -1.7795   -1.6413 O   0  0  0  0  0  0  0  0  0  0  0  0
    3.2923   -0.8417   -0.8961 C   0  0  0  0  0  0  0  0  0  0  0  0
    2.8877    0.4572   -1.1317 N   0  0  0  0  0  0  0  0  0  0  0  0
    2.1602    0.8143   -2.3296 C   0  0  0  0  0  0  0  0  0  0  0  0
    3.0824    1.2319   -3.4424 C   0  0  0  0  0  0  0  0  0  0  0  0
    3.5923    0.2784   -4.3298 C   0  0  0  0  0  0  0  0  0  0  0  0
    4.4188    0.6961   -5.3608 C   0  0  0  0  0  0  0  0  0  0  0  0
    4.7863    1.9782   -5.5533 N   0  0  0  0  0  0  0  0  0  0  0  0
    4.3580    2.8720   -4.6342 C   0  0  0  0  0  0  0  0  0  0  0  0
    4.7898    4.1898   -4.7154 O   0  0  0  0  0  0  0  0  0  0  0  0
    6.0677    4.4085   -5.1831 C   0  0  0  0  0  0  0  0  0  0  0  0
    6.2608    5.5627   -5.9485 C   0  0  0  0  0  0  0  0  0  0  0  0
    7.5343    5.8823   -6.4308 C   0  0  0  0  0  0  0  0  0  0  0  0
    8.6194    5.0496   -6.1531 C   0  0  0  0  0  0  0  0  0  0  0  0
    8.4365    3.9103   -5.3717 C   0  0  0  0  0  0  0  0  0  0  0  0
    7.1722    3.6088   -4.8707 C   0  0  0  0  0  0  0  0  0  0  0  0
    7.0593    2.5544   -4.0485 F   0  0  0  0  0  0  0  0  0  0  0  0
    3.4863    2.5614   -3.5977 C   0  0  0  0  0  0  0  0  0  0  0  0
    4.1053   -1.0592    0.3287 C   0  0  0  0  0  0  0  0  0  0  0  0
    5.1027   -2.0401    0.3041 C   0  0  0  0  0  0  0  0  0  0  0  0
    5.8891   -2.2714    1.4387 C   0  0  0  0  0  0  0  0  0  0  0  0
    5.6841   -1.5408    2.6196 C   0  0  0  0  0  0  0  0  0  0  0  0
    6.5313   -1.8007    3.7794 C   0  0  0  0  0  0  0  0  0  0  0  0
    7.5507   -2.6231    3.9111 N   0  0  0  0  0  0  0  0  0  0  0  0
    7.9286   -2.4051    5.2047 C   0  0  0  0  0  0  0  0  0  0  0  0
    7.2037   -1.5049    5.8730 N   0  0  0  0  0  0  0  0  0  0  0  0
    6.2637   -1.0954    4.9223 O   0  0  0  0  0  0  0  0  0  0  0  0
    4.6623   -0.5770    2.6408 C   0  0  0  0  0  0  0  0  0  0  0  0
    3.8774   -0.3361    1.5057 C   0  0  0  0  0  0  0  0  0  0  0  0
    3.3020    1.2058   -0.5961 H   0  0  0  0  0  0  0  0  0  0  0  0
    1.4846    1.6358   -2.0703 H   0  0  0  0  0  0  0  0  0  0  0  0
    1.5336   -0.0262   -2.6529 H   0  0  0  0  0  0  0  0  0  0  0  0
    3.3525   -0.7756   -4.2194 H   0  0  0  0  0  0  0  0  0  0  0  0
    4.8292   -0.0147   -6.0716 H   0  0  0  0  0  0  0  0  0  0  0  0
    5.4204    6.2146   -6.1720 H   0  0  0  0  0  0  0  0  0  0  0  0
    7.6803    6.7814   -7.0247 H   0  0  0  0  0  0  0  0  0  0  0  0
    9.6079    5.2932   -6.5342 H   0  0  0  0  0  0  0  0  0  0  0  0
    9.2702    3.2565   -5.1366 H   0  0  0  0  0  0  0  0  0  0  0  0
    3.1514    3.3387   -2.9204 H   0  0  0  0  0  0  0  0  0  0  0  0
    5.2740   -2.6222   -0.5988 H   0  0  0  0  0  0  0  0  0  0  0  0
    6.6676   -3.0326    1.3945 H   0  0  0  0  0  0  0  0  0  0  0  0
    8.7572   -2.9150    5.6767 H   0  0  0  0  0  0  0  0  0  0  0  0
    4.4602   -0.0037    3.5442 H   0  0  0  0  0  0  0  0  0  0  0  0
    3.0750    0.3948    1.5638 H   0  0  0  0  0  0  0  0  0  0  0  0
  1  2  2  0  0  0  0
  2  3  1  0  0  0  0
  2 19  1  0  0  0  0
  3  4  1  0  0  0  0
  3 30  1  0  0  0  0
  4  5  1  0  0  0  0
  4 31  1  0  0  0  0
  4 32  1  0  0  0  0
  5  6  2  0  0  0  0
  5 18  1  0  0  0  0
  6  7  1  0  0  0  0
  6 33  1  0  0  0  0
  7  8  2  0  0  0  0
  7 34  1  0  0  0  0
  8  9  1  0  0  0  0
  9 10  1  0  0  0  0
  9 18  2  0  0  0  0
 10 11  1  0  0  0  0
 11 12  2  0  0  0  0
 11 16  1  0  0  0  0
 12 13  1  0  0  0  0
 12 35  1  0  0  0  0
 13 14  2  0  0  0  0
 13 36  1  0  0  0  0
 14 15  1  0  0  0  0
 14 37  1  0  0  0  0
 15 16  2  0  0  0  0
 15 38  1  0  0  0  0
 16 17  1  0  0  0  0
 18 39  1  0  0  0  0
 19 20  2  0  0  0  0
 19 29  1  0  0  0  0
 20 21  1  0  0  0  0
 20 40  1  0  0  0  0
 21 22  2  0  0  0  0
 21 41  1  0  0  0  0
 22 23  1  0  0  0  0
 22 28  1  0  0  0  0
 23 24  2  0  0  0  0
 23 27  1  0  0  0  0
 24 25  1  0  0  0  0
 25 26  2  0  0  0  0
 25 42  1  0  0  0  0
 26 27  1  0  0  0  0
 28 29  2  0  0  0  0
 28 43  1  0  0  0  0
 29 44  1  0  0  0  0
M  END
$$$$
