
 OpenBabel01122422383D

 46 49  0  0  0  0  0  0  0  0999 V2000
    3.5974    2.1211    5.9611 C   0  0  0  0  0  0  0  0  0  0  0  0
    3.9704    1.9930    4.5206 C   0  0  0  0  0  0  0  0  0  0  0  0
    4.4546    2.9983    3.7797 C   0  0  0  0  0  0  0  0  0  0  0  0
    4.7259    2.7293    2.3497 C   0  0  0  0  0  0  0  0  0  0  0  0
    5.1904    3.9230    1.5232 C   0  0  0  0  0  0  0  0  0  0  0  0
    5.8503    4.8228    2.0222 O   0  0  0  0  0  0  0  0  0  0  0  0
    4.7665    3.8268    0.2533 O   0  0  0  0  0  0  0  0  0  0  0  0
    5.2393    4.8672   -0.6118 C   0  0  0  0  0  0  0  0  0  0  0  0
    4.3800    6.0770   -0.5108 C   0  0  0  0  0  0  0  0  0  0  0  0
    4.7690    7.3298   -0.6547 N   0  0  0  0  0  0  0  0  0  0  0  0
    3.6254    8.0493   -0.4744 C   0  0  0  0  0  0  0  0  0  0  0  0
    2.5545    7.2178   -0.2388 C   0  0  0  0  0  0  0  0  0  0  0  0
    1.1524    7.4576    0.0742 C   0  0  0  0  0  0  0  0  0  0  0  0
    0.6589    8.7707    0.0616 C   0  0  0  0  0  0  0  0  0  0  0  0
   -0.6389    9.0537    0.4755 C   0  0  0  0  0  0  0  0  0  0  0  0
   -1.4624    8.0220    0.9172 C   0  0  0  0  0  0  0  0  0  0  0  0
   -1.0162    6.6875    0.9372 C   0  0  0  0  0  0  0  0  0  0  0  0
   -1.8733    5.6027    1.4660 C   0  0  0  0  0  0  0  0  0  0  0  0
   -1.8052    4.2965    0.9488 C   0  0  0  0  0  0  0  0  0  0  0  0
   -2.6179    3.2725    1.4425 C   0  0  0  0  0  0  0  0  0  0  0  0
   -3.5186    3.5344    2.4709 C   0  0  0  0  0  0  0  0  0  0  0  0
   -3.5944    4.8109    3.0149 C   0  0  0  0  0  0  0  0  0  0  0  0
   -2.7774    5.8301    2.5213 C   0  0  0  0  0  0  0  0  0  0  0  0
    0.2925    6.4274    0.4761 C   0  0  0  0  0  0  0  0  0  0  0  0
    3.0306    5.9273   -0.2660 O   0  0  0  0  0  0  0  0  0  0  0  0
    4.6044    1.5685    1.7784 N   0  0  0  0  0  0  0  0  0  0  0  0
    4.1599    0.5510    2.5749 N   0  0  0  0  0  0  0  0  0  0  0  0
    3.7882    0.6573    3.8929 C   0  0  0  0  0  0  0  0  0  0  0  0
    3.3430   -0.2956    4.5239 O   0  0  0  0  0  0  0  0  0  0  0  0
    3.8176    3.1206    6.3509 H   0  0  0  0  0  0  0  0  0  0  0  0
    4.1437    1.3971    6.5746 H   0  0  0  0  0  0  0  0  0  0  0  0
    2.5238    1.9444    6.0886 H   0  0  0  0  0  0  0  0  0  0  0  0
    4.6402    3.9901    4.1728 H   0  0  0  0  0  0  0  0  0  0  0  0
    5.2261    4.4925   -1.6405 H   0  0  0  0  0  0  0  0  0  0  0  0
    6.2821    5.1221   -0.3819 H   0  0  0  0  0  0  0  0  0  0  0  0
    3.6309    9.1305   -0.4990 H   0  0  0  0  0  0  0  0  0  0  0  0
    1.2883    9.6012   -0.2478 H   0  0  0  0  0  0  0  0  0  0  0  0
   -0.9991   10.0790    0.4792 H   0  0  0  0  0  0  0  0  0  0  0  0
   -2.4652    8.2780    1.2525 H   0  0  0  0  0  0  0  0  0  0  0  0
   -1.1184    4.0557    0.1411 H   0  0  0  0  0  0  0  0  0  0  0  0
   -2.5438    2.2766    1.0203 H   0  0  0  0  0  0  0  0  0  0  0  0
   -4.1574    2.7418    2.8462 H   0  0  0  0  0  0  0  0  0  0  0  0
   -4.2858    5.0172    3.8282 H   0  0  0  0  0  0  0  0  0  0  0  0
   -2.8473    6.8116    2.9889 H   0  0  0  0  0  0  0  0  0  0  0  0
    0.6695    5.4067    0.4773 H   0  0  0  0  0  0  0  0  0  0  0  0
    4.0431   -0.3561    2.1320 H   0  0  0  0  0  0  0  0  0  0  0  0
  1  2  1  0  0  0  0
  1 30  1  0  0  0  0
  1 31  1  0  0  0  0
  1 32  1  0  0  0  0
  2  3  2  0  0  0  0
  2 28  1  0  0  0  0
  3  4  1  0  0  0  0
  3 33  1  0  0  0  0
  4  5  1  0  0  0  0
  4 26  2  0  0  0  0
  5  6  2  0  0  0  0
  5  7  1  0  0  0  0
  7  8  1  0  0  0  0
  8  9  1  0  0  0  0
  8 34  1  0  0  0  0
  8 35  1  0  0  0  0
  9 10  2  0  0  0  0
  9 25  1  0  0  0  0
 10 11  1  0  0  0  0
 11 12  2  0  0  0  0
 11 36  1  0  0  0  0
 12 13  1  0  0  0  0
 12 25  1  0  0  0  0
 13 14  2  0  0  0  0
 13 24  1  0  0  0  0
 14 15  1  0  0  0  0
 14 37  1  0  0  0  0
 15 16  2  0  0  0  0
 15 38  1  0  0  0  0
 16 17  1  0  0  0  0
 16 39  1  0  0  0  0
 17 18  1  0  0  0  0
 17 24  2  0  0  0  0
 18 19  2  0  0  0  0
 18 23  1  0  0  0  0
 19 20  1  0  0  0  0
 19 40  1  0  0  0  0
 20 21  2  0  0  0  0
 20 41  1  0  0  0  0
 21 22  1  0  0  0  0
 21 42  1  0  0  0  0
 22 23  2  0  0  0  0
 22 43  1  0  0  0  0
 23 44  1  0  0  0  0
 24 45  1  0  0  0  0
 26 27  1  0  0  0  0
 27 28  1  0  0  0  0
 27 46  1  0  0  0  0
 28 29  2  0  0  0  0
M  END
$$$$
