
 OpenBabel01122422383D

 46 49  0  0  0  0  0  0  0  0999 V2000
    1.3430    0.5227    0.7508 O   0  0  0  0  0  0  0  0  0  0  0  0
    2.3423    0.1114    0.1850 C   0  0  0  0  0  0  0  0  0  0  0  0
    2.8294    0.5457   -1.0340 N   0  0  0  0  0  0  0  0  0  0  0  0
    2.1704    1.4757   -1.8374 C   0  0  0  0  0  0  0  0  0  0  0  0
    1.5309    2.5824   -1.3262 C   0  0  0  0  0  0  0  0  0  0  0  0
    0.8974    3.3817   -2.2431 C   0  0  0  0  0  0  0  0  0  0  0  0
    0.8377    3.0956   -3.5557 N   0  0  0  0  0  0  0  0  0  0  0  0
    1.4844    1.9848   -3.9611 C   0  0  0  0  0  0  0  0  0  0  0  0
    1.2688    1.5196   -5.3853 C   0  0  0  0  0  0  0  0  0  0  0  0
    2.2523    2.0768   -6.2537 O   0  0  0  0  0  0  0  0  0  0  0  0
    2.1327    1.7644   -7.5821 C   0  0  0  0  0  0  0  0  0  0  0  0
    1.1899    0.9021   -8.1473 C   0  0  0  0  0  0  0  0  0  0  0  0
    1.1840    0.6735   -9.5268 C   0  0  0  0  0  0  0  0  0  0  0  0
    2.1188    1.3038  -10.3466 C   0  0  0  0  0  0  0  0  0  0  0  0
    3.0614    2.1631   -9.7884 C   0  0  0  0  0  0  0  0  0  0  0  0
    3.0669    2.3893   -8.4103 C   0  0  0  0  0  0  0  0  0  0  0  0
    2.2073    1.1862   -3.1472 N   0  0  0  0  0  0  0  0  0  0  0  0
    3.1331   -0.9887    0.7859 C   0  0  0  0  0  0  0  0  0  0  0  0
    4.5087   -0.7712    0.9555 C   0  0  0  0  0  0  0  0  0  0  0  0
    5.2875   -1.7297    1.5914 C   0  0  0  0  0  0  0  0  0  0  0  0
    4.6585   -2.8699    2.0451 C   0  0  0  0  0  0  0  0  0  0  0  0
    3.3411   -3.1175    1.8790 N   0  0  0  0  0  0  0  0  0  0  0  0
    2.5661   -2.1877    1.2432 C   0  0  0  0  0  0  0  0  0  0  0  0
    1.1648   -2.6379    1.0529 C   0  0  0  0  0  0  0  0  0  0  0  0
    0.5341   -3.4317    2.0277 C   0  0  0  0  0  0  0  0  0  0  0  0
   -0.7564   -3.8924    1.8149 C   0  0  0  0  0  0  0  0  0  0  0  0
   -1.4747   -3.6223    0.7068 N   0  0  0  0  0  0  0  0  0  0  0  0
   -0.8651   -2.8688   -0.2282 C   0  0  0  0  0  0  0  0  0  0  0  0
    0.4283   -2.3760   -0.1105 C   0  0  0  0  0  0  0  0  0  0  0  0
    3.4453   -0.0603   -1.5513 H   0  0  0  0  0  0  0  0  0  0  0  0
    1.5358    2.8293   -0.2719 H   0  0  0  0  0  0  0  0  0  0  0  0
    0.3882    4.2913   -1.9404 H   0  0  0  0  0  0  0  0  0  0  0  0
    0.2619    1.8286   -5.6954 H   0  0  0  0  0  0  0  0  0  0  0  0
    1.3310    0.4238   -5.3983 H   0  0  0  0  0  0  0  0  0  0  0  0
    0.4440    0.3893   -7.5495 H   0  0  0  0  0  0  0  0  0  0  0  0
    0.4483    0.0025   -9.9626 H   0  0  0  0  0  0  0  0  0  0  0  0
    2.1113    1.1261  -11.4185 H   0  0  0  0  0  0  0  0  0  0  0  0
    3.7919    2.6591  -10.4215 H   0  0  0  0  0  0  0  0  0  0  0  0
    3.8041    3.0625   -7.9779 H   0  0  0  0  0  0  0  0  0  0  0  0
    4.9719    0.1539    0.6200 H   0  0  0  0  0  0  0  0  0  0  0  0
    6.3491   -1.5792    1.7449 H   0  0  0  0  0  0  0  0  0  0  0  0
    5.2124   -3.6464    2.5692 H   0  0  0  0  0  0  0  0  0  0  0  0
    1.0510   -3.7031    2.9433 H   0  0  0  0  0  0  0  0  0  0  0  0
   -1.2565   -4.5134    2.5514 H   0  0  0  0  0  0  0  0  0  0  0  0
   -1.4582   -2.6646   -1.1154 H   0  0  0  0  0  0  0  0  0  0  0  0
    0.8394   -1.8085   -0.9376 H   0  0  0  0  0  0  0  0  0  0  0  0
  1  2  2  0  0  0  0
  2  3  1  0  0  0  0
  2 18  1  0  0  0  0
  3  4  1  0  0  0  0
  3 30  1  0  0  0  0
  4  5  2  0  0  0  0
  4 17  1  0  0  0  0
  5  6  1  0  0  0  0
  5 31  1  0  0  0  0
  6  7  2  0  0  0  0
  6 32  1  0  0  0  0
  7  8  1  0  0  0  0
  8  9  1  0  0  0  0
  8 17  2  0  0  0  0
  9 10  1  0  0  0  0
  9 33  1  0  0  0  0
  9 34  1  0  0  0  0
 10 11  1  0  0  0  0
 11 12  2  0  0  0  0
 11 16  1  0  0  0  0
 12 13  1  0  0  0  0
 12 35  1  0  0  0  0
 13 14  2  0  0  0  0
 13 36  1  0  0  0  0
 14 15  1  0  0  0  0
 14 37  1  0  0  0  0
 15 16  2  0  0  0  0
 15 38  1  0  0  0  0
 16 39  1  0  0  0  0
 18 19  2  0  0  0  0
 18 23  1  0  0  0  0
 19 20  1  0  0  0  0
 19 40  1  0  0  0  0
 20 21  2  0  0  0  0
 20 41  1  0  0  0  0
 21 22  1  0  0  0  0
 21 42  1  0  0  0  0
 22 23  2  0  0  0  0
 23 24  1  0  0  0  0
 24 25  2  0  0  0  0
 24 29  1  0  0  0  0
 25 26  1  0  0  0  0
 25 43  1  0  0  0  0
 26 27  2  0  0  0  0
 26 44  1  0  0  0  0
 27 28  1  0  0  0  0
 28 29  2  0  0  0  0
 28 45  1  0  0  0  0
 29 46  1  0  0  0  0
M  END
$$$$
