
 OpenBabel01122422383D

 56 59  0  0  0  0  0  0  0  0999 V2000
    2.3610   -2.4238   -0.3727 N   0  0  0  0  0  0  0  0  0  0  0  0
    3.1316   -1.6506    0.0291 C   0  0  0  0  0  0  0  0  0  0  0  0
    4.0901   -0.7231    0.5209 C   0  0  0  0  0  0  0  0  0  0  0  0
    5.2098   -0.2586   -0.1387 C   0  0  0  0  0  0  0  0  0  0  0  0
    5.6889   -0.5944   -1.3712 N   0  0  0  0  0  0  0  0  0  0  0  0
    5.8358    0.6287    0.7591 N   0  0  0  0  0  0  0  0  0  0  0  0
    6.9675    1.4700    0.5440 C   0  0  0  0  0  0  0  0  0  0  0  0
    7.3356    1.8499   -0.7441 C   0  0  0  0  0  0  0  0  0  0  0  0
    8.4654    2.6448   -0.9588 C   0  0  0  0  0  0  0  0  0  0  0  0
    9.2668    3.0870    0.0927 C   0  0  0  0  0  0  0  0  0  0  0  0
   10.4349    4.0241   -0.0588 C   0  0  0  0  0  0  0  0  0  0  0  0
   10.6338    4.7840    0.8934 O   0  0  0  0  0  0  0  0  0  0  0  0
   11.2495    4.0860   -1.2033 N   0  0  0  0  0  0  0  0  0  0  0  0
   11.2081    3.1710   -2.3534 C   0  0  0  0  0  0  0  0  0  0  0  0
   10.2942    3.6414   -3.4967 C   0  0  0  0  0  0  0  0  0  0  0  0
    9.6070    4.8053   -3.2936 N   0  0  0  0  0  0  0  0  0  0  0  0
   10.1222    2.9861   -4.5202 O   0  0  0  0  0  0  0  0  0  0  0  0
   12.3885    5.0224   -1.1850 C   0  0  0  0  0  0  0  0  0  0  0  0
   13.6574    4.3742   -0.6686 C   0  0  0  0  0  0  0  0  0  0  0  0
   14.5958    3.7889   -1.5280 C   0  0  0  0  0  0  0  0  0  0  0  0
   15.7034    3.0900   -1.0178 C   0  0  0  0  0  0  0  0  0  0  0  0
   15.9245    2.9706    0.3651 C   0  0  0  0  0  0  0  0  0  0  0  0
   17.0584    2.1921    0.9325 C   0  0  0  0  0  0  0  0  0  0  0  0
   18.2987    2.0825    0.2783 C   0  0  0  0  0  0  0  0  0  0  0  0
   19.3725    1.3904    0.8554 C   0  0  0  0  0  0  0  0  0  0  0  0
   19.2328    0.7921    2.1039 C   0  0  0  0  0  0  0  0  0  0  0  0
   18.0119    0.8593    2.7629 C   0  0  0  0  0  0  0  0  0  0  0  0
   16.9388    1.5384    2.1766 C   0  0  0  0  0  0  0  0  0  0  0  0
   15.0104    3.6275    1.2073 C   0  0  0  0  0  0  0  0  0  0  0  0
   13.8928    4.3068    0.7052 C   0  0  0  0  0  0  0  0  0  0  0  0
    8.8569    2.7463    1.3951 C   0  0  0  0  0  0  0  0  0  0  0  0
    7.7142    1.9565    1.6239 C   0  0  0  0  0  0  0  0  0  0  0  0
    5.2214    0.6101    1.9766 N   0  0  0  0  0  0  0  0  0  0  0  0
    4.1460   -0.1575    1.7997 C   0  0  0  0  0  0  0  0  0  0  0  0
    5.2693   -1.3688   -1.8869 H   0  0  0  0  0  0  0  0  0  0  0  0
    6.6881   -0.5292   -1.5666 H   0  0  0  0  0  0  0  0  0  0  0  0
    6.7263    1.6074   -1.6111 H   0  0  0  0  0  0  0  0  0  0  0  0
    8.6359    2.9250   -1.9815 H   0  0  0  0  0  0  0  0  0  0  0  0
   10.8914    2.1788   -2.0210 H   0  0  0  0  0  0  0  0  0  0  0  0
   12.2093    3.0723   -2.7812 H   0  0  0  0  0  0  0  0  0  0  0  0
    9.6276    5.2747   -2.3957 H   0  0  0  0  0  0  0  0  0  0  0  0
    8.8862    5.0560   -3.9584 H   0  0  0  0  0  0  0  0  0  0  0  0
   12.1503    5.8950   -0.5643 H   0  0  0  0  0  0  0  0  0  0  0  0
   12.5411    5.4117   -2.1995 H   0  0  0  0  0  0  0  0  0  0  0  0
   14.4695    3.8490   -2.6068 H   0  0  0  0  0  0  0  0  0  0  0  0
   16.3793    2.6177   -1.7273 H   0  0  0  0  0  0  0  0  0  0  0  0
   18.4598    2.5556   -0.6872 H   0  0  0  0  0  0  0  0  0  0  0  0
   20.3233    1.3311    0.3319 H   0  0  0  0  0  0  0  0  0  0  0  0
   20.0715    0.2747    2.5619 H   0  0  0  0  0  0  0  0  0  0  0  0
   17.8883    0.3895    3.7352 H   0  0  0  0  0  0  0  0  0  0  0  0
   15.9938    1.5480    2.7155 H   0  0  0  0  0  0  0  0  0  0  0  0
   15.1440    3.6138    2.2853 H   0  0  0  0  0  0  0  0  0  0  0  0
   13.2016    4.7693    1.4058 H   0  0  0  0  0  0  0  0  0  0  0  0
    9.4187    3.1123    2.2548 H   0  0  0  0  0  0  0  0  0  0  0  0
    7.4326    1.7223    2.6498 H   0  0  0  0  0  0  0  0  0  0  0  0
    3.4589   -0.2940    2.6257 H   0  0  0  0  0  0  0  0  0  0  0  0
  1  2  3  0  0  0  0
  2  3  1  0  0  0  0
  3  4  2  0  0  0  0
  3 34  1  0  0  0  0
  4  5  1  0  0  0  0
  4  6  1  0  0  0  0
  5 35  1  0  0  0  0
  5 36  1  0  0  0  0
  6  7  1  0  0  0  0
  6 33  1  0  0  0  0
  7  8  2  0  0  0  0
  7 32  1  0  0  0  0
  8  9  1  0  0  0  0
  8 37  1  0  0  0  0
  9 10  2  0  0  0  0
  9 38  1  0  0  0  0
 10 11  1  0  0  0  0
 10 31  1  0  0  0  0
 11 12  2  0  0  0  0
 11 13  1  0  0  0  0
 13 14  1  0  0  0  0
 13 18  1  0  0  0  0
 14 15  1  0  0  0  0
 14 39  1  0  0  0  0
 14 40  1  0  0  0  0
 15 16  1  0  0  0  0
 15 17  2  0  0  0  0
 16 41  1  0  0  0  0
 16 42  1  0  0  0  0
 18 19  1  0  0  0  0
 18 43  1  0  0  0  0
 18 44  1  0  0  0  0
 19 20  2  0  0  0  0
 19 30  1  0  0  0  0
 20 21  1  0  0  0  0
 20 45  1  0  0  0  0
 21 22  2  0  0  0  0
 21 46  1  0  0  0  0
 22 23  1  0  0  0  0
 22 29  1  0  0  0  0
 23 24  2  0  0  0  0
 23 28  1  0  0  0  0
 24 25  1  0  0  0  0
 24 47  1  0  0  0  0
 25 26  2  0  0  0  0
 25 48  1  0  0  0  0
 26 27  1  0  0  0  0
 26 49  1  0  0  0  0
 27 28  2  0  0  0  0
 27 50  1  0  0  0  0
 28 51  1  0  0  0  0
 29 30  2  0  0  0  0
 29 52  1  0  0  0  0
 30 53  1  0  0  0  0
 31 32  2  0  0  0  0
 31 54  1  0  0  0  0
 32 55  1  0  0  0  0
 33 34  2  0  0  0  0
 34 56  1  0  0  0  0
M  END
$$$$
