
 OpenBabel01122422383D

 53 56  0  0  1  0  0  0  0  0999 V2000
    0.3154   -1.9970    2.3131 C   0  0  0  0  0  0  0  0  0  0  0  0
    0.6998   -1.1793    1.1888 N   0  0  0  0  0  0  0  0  0  0  0  0
    0.4025   -1.3877   -0.1231 C   0  0  0  0  0  0  0  0  0  0  0  0
    1.0205   -0.3714   -0.8136 C   0  0  0  0  0  0  0  0  0  0  0  0
    1.6636    0.4243    0.1782 C   0  0  0  0  0  0  0  0  0  0  0  0
    2.4436    1.7083   -0.0254 C   0  0  3  0  0  0  0  0  0  0  0  0
    2.3603    2.5661    1.1437 N   0  0  0  0  0  0  0  0  0  0  0  0
    1.3346    3.4778    1.3181 C   0  0  0  0  0  0  0  0  0  0  0  0
    0.4445    3.6787    0.5062 O   0  0  0  0  0  0  0  0  0  0  0  0
    1.4016    4.2853    2.5757 C   0  0  0  0  0  0  0  0  0  0  0  0
    2.6428    4.5174    3.1678 C   0  0  0  0  0  0  0  0  0  0  0  0
    2.7509    5.3486    4.2815 C   0  0  0  0  0  0  0  0  0  0  0  0
    1.6348    5.9814    4.8330 C   0  0  0  0  0  0  0  0  0  0  0  0
    1.7236    6.8563    5.9467 N   0  0  0  0  0  0  0  0  0  0  0  0
    2.8933    7.1763    6.6200 C   0  0  0  0  0  0  0  0  0  0  0  0
    4.0197    6.7749    6.3393 O   0  0  0  0  0  0  0  0  0  0  0  0
    2.7509    8.1070    7.7863 C   0  0  0  0  0  0  0  0  0  0  0  0
    3.8680    8.7722    8.1410 C   0  0  0  0  0  0  0  0  0  0  0  0
    3.8958    9.5592    9.2658 N   0  0  0  0  0  0  0  0  0  0  0  0
    2.8320    9.7091   10.1183 C   0  0  0  0  0  0  0  0  0  0  0  0
    2.8782   10.3937   11.1325 O   0  0  0  0  0  0  0  0  0  0  0  0
    1.5980    8.9682    9.7409 C   0  0  0  0  0  0  0  0  0  0  0  0
    1.5751    8.2145    8.6292 C   0  0  0  0  0  0  0  0  0  0  0  0
    0.3847    5.7476    4.2415 C   0  0  0  0  0  0  0  0  0  0  0  0
    0.2681    4.9058    3.1165 C   0  0  0  0  0  0  0  0  0  0  0  0
    3.8930    1.3166   -0.3416 C   0  0  0  0  0  0  0  0  0  0  0  0
    4.4709    1.7628   -1.5515 C   0  0  0  0  0  0  0  0  0  0  0  0
    5.7789    1.4282   -1.9011 C   0  0  0  0  0  0  0  0  0  0  0  0
    6.5461    0.6585   -1.0345 C   0  0  0  0  0  0  0  0  0  0  0  0
    7.8036    0.3304   -1.3718 F   0  0  0  0  0  0  0  0  0  0  0  0
    6.0242    0.2267    0.1782 C   0  0  0  0  0  0  0  0  0  0  0  0
    4.7034    0.5575    0.5246 C   0  0  0  0  0  0  0  0  0  0  0  0
    1.4668   -0.0959    1.4061 N   0  0  0  0  0  0  0  0  0  0  0  0
   -0.2647   -2.8553    1.9664 H   0  0  0  0  0  0  0  0  0  0  0  0
   -0.2839   -1.3868    2.9938 H   0  0  0  0  0  0  0  0  0  0  0  0
    1.2280   -2.3381    2.8081 H   0  0  0  0  0  0  0  0  0  0  0  0
   -0.2081   -2.2187   -0.4523 H   0  0  0  0  0  0  0  0  0  0  0  0
    0.9993   -0.2172   -1.8837 H   0  0  0  0  0  0  0  0  0  0  0  0
    2.0113    2.2515   -0.8752 H   0  0  0  0  0  0  0  0  0  0  0  0
    2.8253    2.2132    1.9647 H   0  0  0  0  0  0  0  0  0  0  0  0
    3.5549    4.1019    2.7577 H   0  0  0  0  0  0  0  0  0  0  0  0
    3.7531    5.4923    4.6655 H   0  0  0  0  0  0  0  0  0  0  0  0
    0.8668    7.2960    6.2370 H   0  0  0  0  0  0  0  0  0  0  0  0
    4.8012    8.7042    7.5873 H   0  0  0  0  0  0  0  0  0  0  0  0
    4.7531   10.0300    9.5325 H   0  0  0  0  0  0  0  0  0  0  0  0
    0.7583    9.0535   10.4173 H   0  0  0  0  0  0  0  0  0  0  0  0
    0.6855    7.6459    8.3868 H   0  0  0  0  0  0  0  0  0  0  0  0
   -0.5137    6.2233    4.6293 H   0  0  0  0  0  0  0  0  0  0  0  0
   -0.7070    4.7514    2.6553 H   0  0  0  0  0  0  0  0  0  0  0  0
    3.8932    2.3843   -2.2345 H   0  0  0  0  0  0  0  0  0  0  0  0
    6.2097    1.7618   -2.8405 H   0  0  0  0  0  0  0  0  0  0  0  0
    6.6416   -0.3683    0.8448 H   0  0  0  0  0  0  0  0  0  0  0  0
    4.3144    0.1989    1.4785 H   0  0  0  0  0  0  0  0  0  0  0  0
  1  2  1  0  0  0  0
  1 34  1  0  0  0  0
  1 35  1  0  0  0  0
  1 36  1  0  0  0  0
  2  3  1  0  0  0  0
  2 33  1  0  0  0  0
  3  4  2  0  0  0  0
  3 37  1  0  0  0  0
  4  5  1  0  0  0  0
  4 38  1  0  0  0  0
  5  6  1  0  0  0  0
  5 33  2  0  0  0  0
  6  7  1  0  0  0  0
  6 26  1  0  0  0  0
  6 39  1  0  0  0  0
  7  8  1  0  0  0  0
  7 40  1  0  0  0  0
  8  9  2  0  0  0  0
  8 10  1  0  0  0  0
 10 11  2  0  0  0  0
 10 25  1  0  0  0  0
 11 12  1  0  0  0  0
 11 41  1  0  0  0  0
 12 13  2  0  0  0  0
 12 42  1  0  0  0  0
 13 14  1  0  0  0  0
 13 24  1  0  0  0  0
 14 15  1  0  0  0  0
 14 43  1  0  0  0  0
 15 16  2  0  0  0  0
 15 17  1  0  0  0  0
 17 18  2  0  0  0  0
 17 23  1  0  0  0  0
 18 19  1  0  0  0  0
 18 44  1  0  0  0  0
 19 20  1  0  0  0  0
 19 45  1  0  0  0  0
 20 21  2  0  0  0  0
 20 22  1  0  0  0  0
 22 23  2  0  0  0  0
 22 46  1  0  0  0  0
 23 47  1  0  0  0  0
 24 25  2  0  0  0  0
 24 48  1  0  0  0  0
 25 49  1  0  0  0  0
 26 27  2  0  0  0  0
 26 32  1  0  0  0  0
 27 28  1  0  0  0  0
 27 50  1  0  0  0  0
 28 29  2  0  0  0  0
 28 51  1  0  0  0  0
 29 30  1  0  0  0  0
 29 31  1  0  0  0  0
 31 32  2  0  0  0  0
 31 52  1  0  0  0  0
 32 53  1  0  0  0  0
M  END
$$$$
