
 OpenBabel01122422383D

 45 48  0  0  0  0  0  0  0  0999 V2000
    3.0845    1.3365    2.1700 O   0  0  0  0  0  0  0  0  0  0  0  0
    3.3573    0.6561    1.1816 C   0  0  0  0  0  0  0  0  0  0  0  0
    3.0666   -0.6860    1.1350 N   0  0  0  0  0  0  0  0  0  0  0  0
    2.3337   -1.3616    2.1914 C   0  0  0  0  0  0  0  0  0  0  0  0
    3.2541   -1.9408    3.2362 C   0  0  0  0  0  0  0  0  0  0  0  0
    3.6454   -1.1557    4.3139 C   0  0  0  0  0  0  0  0  0  0  0  0
    4.5727   -1.6685    5.2146 C   0  0  0  0  0  0  0  0  0  0  0  0
    5.0610   -0.9631    6.2918 O   0  0  0  0  0  0  0  0  0  0  0  0
    5.2740    0.3937    6.1679 C   0  0  0  0  0  0  0  0  0  0  0  0
    5.7112    1.0144    4.9884 C   0  0  0  0  0  0  0  0  0  0  0  0
    5.8841    2.3993    4.9460 C   0  0  0  0  0  0  0  0  0  0  0  0
    5.6700    3.1504    6.0955 C   0  0  0  0  0  0  0  0  0  0  0  0
    5.8479    4.4778    6.0542 F   0  0  0  0  0  0  0  0  0  0  0  0
    5.2853    2.5302    7.2789 C   0  0  0  0  0  0  0  0  0  0  0  0
    5.1013    3.2569    8.3897 F   0  0  0  0  0  0  0  0  0  0  0  0
    5.0860    1.1536    7.3241 C   0  0  0  0  0  0  0  0  0  0  0  0
    5.0106   -2.9785    5.0733 C   0  0  0  0  0  0  0  0  0  0  0  0
    4.5572   -3.7000    3.9828 C   0  0  0  0  0  0  0  0  0  0  0  0
    3.7133   -3.2037    3.0494 N   0  0  0  0  0  0  0  0  0  0  0  0
    4.0402    1.2075    0.0478 C   0  0  0  0  0  0  0  0  0  0  0  0
    4.9565    2.2422    0.0588 C   0  0  0  0  0  0  0  0  0  0  0  0
    5.5034    2.4015   -1.1746 N   0  0  0  0  0  0  0  0  0  0  0  0
    4.9529    1.5035   -1.9774 N   0  0  0  0  0  0  0  0  0  0  0  0
    3.9771    0.8585   -1.2913 N   0  0  0  0  0  0  0  0  0  0  0  0
    3.0999   -0.0288   -1.9613 C   0  0  0  0  0  0  0  0  0  0  0  0
    1.7994   -0.2475   -1.4931 C   0  0  0  0  0  0  0  0  0  0  0  0
    1.0097   -1.2158   -2.1009 C   0  0  0  0  0  0  0  0  0  0  0  0
   -0.2177   -1.4525   -1.6213 F   0  0  0  0  0  0  0  0  0  0  0  0
    1.4799   -1.9532   -3.1793 C   0  0  0  0  0  0  0  0  0  0  0  0
    2.7525   -1.6954   -3.6876 C   0  0  0  0  0  0  0  0  0  0  0  0
    3.5582   -0.7212   -3.0929 C   0  0  0  0  0  0  0  0  0  0  0  0
    3.4721   -1.2820    0.4253 H   0  0  0  0  0  0  0  0  0  0  0  0
    1.7581   -2.1657    1.7213 H   0  0  0  0  0  0  0  0  0  0  0  0
    1.6186   -0.6692    2.6504 H   0  0  0  0  0  0  0  0  0  0  0  0
    3.2483   -0.1507    4.4195 H   0  0  0  0  0  0  0  0  0  0  0  0
    5.9030    0.4362    4.0881 H   0  0  0  0  0  0  0  0  0  0  0  0
    6.1822    2.8923    4.0264 H   0  0  0  0  0  0  0  0  0  0  0  0
    4.7812    0.6866    8.2552 H   0  0  0  0  0  0  0  0  0  0  0  0
    5.6932   -3.4237    5.7879 H   0  0  0  0  0  0  0  0  0  0  0  0
    4.8735   -4.7273    3.8228 H   0  0  0  0  0  0  0  0  0  0  0  0
    5.2798    2.8337    0.9040 H   0  0  0  0  0  0  0  0  0  0  0  0
    1.3692    0.3196   -0.6726 H   0  0  0  0  0  0  0  0  0  0  0  0
    0.8497   -2.7188   -3.6213 H   0  0  0  0  0  0  0  0  0  0  0  0
    3.1246   -2.2635   -4.5372 H   0  0  0  0  0  0  0  0  0  0  0  0
    4.5585   -0.5510   -3.4912 H   0  0  0  0  0  0  0  0  0  0  0  0
  1  2  2  0  0  0  0
  2  3  1  0  0  0  0
  2 20  1  0  0  0  0
  3  4  1  0  0  0  0
  3 32  1  0  0  0  0
  4  5  1  0  0  0  0
  4 33  1  0  0  0  0
  4 34  1  0  0  0  0
  5  6  2  0  0  0  0
  5 19  1  0  0  0  0
  6  7  1  0  0  0  0
  6 35  1  0  0  0  0
  7  8  1  0  0  0  0
  7 17  2  0  0  0  0
  8  9  1  0  0  0  0
  9 10  2  0  0  0  0
  9 16  1  0  0  0  0
 10 11  1  0  0  0  0
 10 36  1  0  0  0  0
 11 12  2  0  0  0  0
 11 37  1  0  0  0  0
 12 13  1  0  0  0  0
 12 14  1  0  0  0  0
 14 15  1  0  0  0  0
 14 16  2  0  0  0  0
 16 38  1  0  0  0  0
 17 18  1  0  0  0  0
 17 39  1  0  0  0  0
 18 19  2  0  0  0  0
 18 40  1  0  0  0  0
 20 21  2  0  0  0  0
 20 24  1  0  0  0  0
 21 22  1  0  0  0  0
 21 41  1  0  0  0  0
 22 23  2  0  0  0  0
 23 24  1  0  0  0  0
 24 25  1  0  0  0  0
 25 26  2  0  0  0  0
 25 31  1  0  0  0  0
 26 27  1  0  0  0  0
 26 42  1  0  0  0  0
 27 28  1  0  0  0  0
 27 29  2  0  0  0  0
 29 30  1  0  0  0  0
 29 43  1  0  0  0  0
 30 31  2  0  0  0  0
 30 44  1  0  0  0  0
 31 45  1  0  0  0  0
M  END
$$$$
