
 OpenBabel01122422383D

 47 50  0  0  0  0  0  0  0  0999 V2000
    0.8307    0.1718   -0.0986 O   0  0  0  0  0  0  0  0  0  0  0  0
    2.0402    0.0393    0.0404 C   0  0  0  0  0  0  0  0  0  0  0  0
    2.7186   -1.0798    0.4928 N   0  0  0  0  0  0  0  0  0  0  0  0
    2.1117   -2.3281    0.6836 C   0  0  0  0  0  0  0  0  0  0  0  0
    2.8895   -3.3956    1.1110 C   0  0  0  0  0  0  0  0  0  0  0  0
    2.2958   -4.6532    1.2296 C   0  0  0  0  0  0  0  0  0  0  0  0
    0.9440   -4.8067    0.9334 C   0  0  0  0  0  0  0  0  0  0  0  0
    0.2275   -3.6904    0.5255 C   0  0  0  0  0  0  0  0  0  0  0  0
   -1.2486   -3.7626    0.2106 C   0  0  0  0  0  0  0  0  0  0  0  0
   -2.1445   -3.6481    1.4239 C   0  0  0  0  0  0  0  0  0  0  0  0
   -2.1449   -2.4780    2.1997 C   0  0  0  0  0  0  0  0  0  0  0  0
   -2.9676   -2.3698    3.3219 C   0  0  0  0  0  0  0  0  0  0  0  0
   -3.8076   -3.4239    3.6742 C   0  0  0  0  0  0  0  0  0  0  0  0
   -3.8313   -4.5830    2.9002 C   0  0  0  0  0  0  0  0  0  0  0  0
   -3.0052   -4.6954    1.7798 C   0  0  0  0  0  0  0  0  0  0  0  0
    0.8079   -2.4749    0.4001 N   0  0  0  0  0  0  0  0  0  0  0  0
    2.9186    1.2304   -0.3397 C   0  0  0  0  0  0  0  0  0  0  0  0
    2.3060    2.2618   -0.8576 N   0  0  0  0  0  0  0  0  0  0  0  0
    3.0392    3.3552   -1.2414 N   0  0  0  0  0  0  0  0  0  0  0  0
    2.2488    4.5045   -1.5780 C   0  0  0  0  0  0  0  0  0  0  0  0
    0.9159    4.3494   -2.0158 C   0  0  0  0  0  0  0  0  0  0  0  0
    0.1019    5.4530   -2.3022 C   0  0  0  0  0  0  0  0  0  0  0  0
    0.5974    6.7440   -2.1513 C   0  0  0  0  0  0  0  0  0  0  0  0
    1.9091    6.9291   -1.7267 C   0  0  0  0  0  0  0  0  0  0  0  0
    2.7186    5.8246   -1.4489 C   0  0  0  0  0  0  0  0  0  0  0  0
    3.9580    6.0778   -0.9995 F   0  0  0  0  0  0  0  0  0  0  0  0
    4.4194    3.3444   -1.2329 C   0  0  0  0  0  0  0  0  0  0  0  0
    5.1712    2.3596   -0.7389 C   0  0  0  0  0  0  0  0  0  0  0  0
    4.4232    1.2319   -0.1726 C   0  0  0  0  0  0  0  0  0  0  0  0
    4.9824    0.2985    0.3914 O   0  0  0  0  0  0  0  0  0  0  0  0
    3.7213   -1.0148    0.6541 H   0  0  0  0  0  0  0  0  0  0  0  0
    3.9423   -3.2743    1.3415 H   0  0  0  0  0  0  0  0  0  0  0  0
    2.8834   -5.5103    1.5473 H   0  0  0  0  0  0  0  0  0  0  0  0
    0.4645   -5.7761    1.0189 H   0  0  0  0  0  0  0  0  0  0  0  0
   -1.4501   -4.6945   -0.3321 H   0  0  0  0  0  0  0  0  0  0  0  0
   -1.5091   -2.9555   -0.4872 H   0  0  0  0  0  0  0  0  0  0  0  0
   -1.4971   -1.6435    1.9293 H   0  0  0  0  0  0  0  0  0  0  0  0
   -2.9516   -1.4611    3.9179 H   0  0  0  0  0  0  0  0  0  0  0  0
   -4.4467   -3.3398    4.5490 H   0  0  0  0  0  0  0  0  0  0  0  0
   -4.4956   -5.3999    3.1685 H   0  0  0  0  0  0  0  0  0  0  0  0
   -3.0427   -5.6044    1.1848 H   0  0  0  0  0  0  0  0  0  0  0  0
    0.4959    3.3517   -2.1372 H   0  0  0  0  0  0  0  0  0  0  0  0
   -0.9223    5.2959   -2.6332 H   0  0  0  0  0  0  0  0  0  0  0  0
   -0.0388    7.6018   -2.3537 H   0  0  0  0  0  0  0  0  0  0  0  0
    2.3096    7.9285   -1.5896 H   0  0  0  0  0  0  0  0  0  0  0  0
    4.8963    4.2058   -1.6887 H   0  0  0  0  0  0  0  0  0  0  0  0
    6.2497    2.3568   -0.7262 H   0  0  0  0  0  0  0  0  0  0  0  0
  1  2  2  0  0  0  0
  2  3  1  0  0  0  0
  2 17  1  0  0  0  0
  3  4  1  0  0  0  0
  3 31  1  0  0  0  0
  4  5  2  0  0  0  0
  4 16  1  0  0  0  0
  5  6  1  0  0  0  0
  5 32  1  0  0  0  0
  6  7  2  0  0  0  0
  6 33  1  0  0  0  0
  7  8  1  0  0  0  0
  7 34  1  0  0  0  0
  8  9  1  0  0  0  0
  8 16  2  0  0  0  0
  9 10  1  0  0  0  0
  9 35  1  0  0  0  0
  9 36  1  0  0  0  0
 10 11  2  0  0  0  0
 10 15  1  0  0  0  0
 11 12  1  0  0  0  0
 11 37  1  0  0  0  0
 12 13  2  0  0  0  0
 12 38  1  0  0  0  0
 13 14  1  0  0  0  0
 13 39  1  0  0  0  0
 14 15  2  0  0  0  0
 14 40  1  0  0  0  0
 15 41  1  0  0  0  0
 17 18  2  0  0  0  0
 17 29  1  0  0  0  0
 18 19  1  0  0  0  0
 19 20  1  0  0  0  0
 19 27  1  0  0  0  0
 20 21  2  0  0  0  0
 20 25  1  0  0  0  0
 21 22  1  0  0  0  0
 21 42  1  0  0  0  0
 22 23  2  0  0  0  0
 22 43  1  0  0  0  0
 23 24  1  0  0  0  0
 23 44  1  0  0  0  0
 24 25  2  0  0  0  0
 24 45  1  0  0  0  0
 25 26  1  0  0  0  0
 27 28  2  0  0  0  0
 27 46  1  0  0  0  0
 28 29  1  0  0  0  0
 28 47  1  0  0  0  0
 29 30  2  0  0  0  0
M  END
$$$$
