
 OpenBabel01122422383D

 42 45  0  0  0  0  0  0  0  0999 V2000
    1.0113    0.0566   -0.1484 O   0  0  0  0  0  0  0  0  0  0  0  0
    2.2317    0.1622   -0.0888 C   0  0  0  0  0  0  0  0  0  0  0  0
    2.9266    1.0036    0.7619 N   0  0  0  0  0  0  0  0  0  0  0  0
    2.3418    1.8016    1.7691 C   0  0  0  0  0  0  0  0  0  0  0  0
    1.0329    1.6008    2.2168 C   0  0  0  0  0  0  0  0  0  0  0  0
    0.4700    2.4259    3.1885 C   0  0  0  0  0  0  0  0  0  0  0  0
    1.2357    3.4223    3.7874 C   0  0  0  0  0  0  0  0  0  0  0  0
    0.7703    4.2546    4.7804 O   0  0  0  0  0  0  0  0  0  0  0  0
   -0.1506    3.7806    5.6837 C   0  0  0  0  0  0  0  0  0  0  0  0
   -0.1976    2.4732    6.1680 C   0  0  0  0  0  0  0  0  0  0  0  0
   -1.2007    2.1061    7.0617 C   0  0  0  0  0  0  0  0  0  0  0  0
   -2.0916    3.0784    7.4857 C   0  0  0  0  0  0  0  0  0  0  0  0
   -2.0431    4.3666    7.0828 N   0  0  0  0  0  0  0  0  0  0  0  0
   -1.0715    4.6869    6.1927 C   0  0  0  0  0  0  0  0  0  0  0  0
    2.5401    3.6432    3.3399 C   0  0  0  0  0  0  0  0  0  0  0  0
    3.0969    2.8288    2.3430 C   0  0  0  0  0  0  0  0  0  0  0  0
    3.0640   -0.6235   -0.9832 C   0  0  0  0  0  0  0  0  0  0  0  0
    2.5826   -1.4572   -1.9661 C   0  0  0  0  0  0  0  0  0  0  0  0
    3.6828   -2.0487   -2.5273 N   0  0  0  0  0  0  0  0  0  0  0  0
    3.7301   -3.0103   -3.5624 C   0  0  0  0  0  0  0  0  0  0  0  0
    2.5742   -3.4073   -4.2401 C   0  0  0  0  0  0  0  0  0  0  0  0
    1.3683   -2.8885   -3.9628 F   0  0  0  0  0  0  0  0  0  0  0  0
    2.6172   -4.3577   -5.2605 C   0  0  0  0  0  0  0  0  0  0  0  0
    3.8291   -4.9363   -5.6195 C   0  0  0  0  0  0  0  0  0  0  0  0
    4.9912   -4.5566   -4.9522 C   0  0  0  0  0  0  0  0  0  0  0  0
    4.9404   -3.6011   -3.9345 C   0  0  0  0  0  0  0  0  0  0  0  0
    6.0946   -3.2992   -3.3253 F   0  0  0  0  0  0  0  0  0  0  0  0
    4.7940   -1.5596   -1.9111 N   0  0  0  0  0  0  0  0  0  0  0  0
    4.4261   -0.6873   -0.9764 N   0  0  0  0  0  0  0  0  0  0  0  0
    3.9222    1.1025    0.5882 H   0  0  0  0  0  0  0  0  0  0  0  0
    0.4140    0.7914    1.8436 H   0  0  0  0  0  0  0  0  0  0  0  0
   -0.5644    2.2536    3.4717 H   0  0  0  0  0  0  0  0  0  0  0  0
    0.5229    1.7274    5.8459 H   0  0  0  0  0  0  0  0  0  0  0  0
   -1.2835    1.0849    7.4166 H   0  0  0  0  0  0  0  0  0  0  0  0
   -2.8883    2.8396    8.1845 H   0  0  0  0  0  0  0  0  0  0  0  0
   -1.0571    5.7285    5.8852 H   0  0  0  0  0  0  0  0  0  0  0  0
    3.1269    4.4528    3.7663 H   0  0  0  0  0  0  0  0  0  0  0  0
    4.1126    3.0285    2.0108 H   0  0  0  0  0  0  0  0  0  0  0  0
    1.5641   -1.6653   -2.2513 H   0  0  0  0  0  0  0  0  0  0  0  0
    1.6978   -4.6398   -5.7683 H   0  0  0  0  0  0  0  0  0  0  0  0
    3.8692   -5.6772   -6.4131 H   0  0  0  0  0  0  0  0  0  0  0  0
    5.9482   -5.0000   -5.2154 H   0  0  0  0  0  0  0  0  0  0  0  0
  1  2  2  0  0  0  0
  2  3  1  0  0  0  0
  2 17  1  0  0  0  0
  3  4  1  0  0  0  0
  3 30  1  0  0  0  0
  4  5  2  0  0  0  0
  4 16  1  0  0  0  0
  5  6  1  0  0  0  0
  5 31  1  0  0  0  0
  6  7  2  0  0  0  0
  6 32  1  0  0  0  0
  7  8  1  0  0  0  0
  7 15  1  0  0  0  0
  8  9  1  0  0  0  0
  9 10  2  0  0  0  0
  9 14  1  0  0  0  0
 10 11  1  0  0  0  0
 10 33  1  0  0  0  0
 11 12  2  0  0  0  0
 11 34  1  0  0  0  0
 12 13  1  0  0  0  0
 12 35  1  0  0  0  0
 13 14  2  0  0  0  0
 14 36  1  0  0  0  0
 15 16  2  0  0  0  0
 15 37  1  0  0  0  0
 16 38  1  0  0  0  0
 17 18  2  0  0  0  0
 17 29  1  0  0  0  0
 18 19  1  0  0  0  0
 18 39  1  0  0  0  0
 19 20  1  0  0  0  0
 19 28  1  0  0  0  0
 20 21  2  0  0  0  0
 20 26  1  0  0  0  0
 21 22  1  0  0  0  0
 21 23  1  0  0  0  0
 23 24  2  0  0  0  0
 23 40  1  0  0  0  0
 24 25  1  0  0  0  0
 24 41  1  0  0  0  0
 25 26  2  0  0  0  0
 25 42  1  0  0  0  0
 26 27  1  0  0  0  0
 28 29  2  0  0  0  0
M  END
$$$$
