
 OpenBabel01122422383D

 44 47  0  0  0  0  0  0  0  0999 V2000
    1.1203    0.0933   -0.0846 O   0  0  0  0  0  0  0  0  0  0  0  0
    2.3422    0.0691    0.0025 C   0  0  0  0  0  0  0  0  0  0  0  0
    3.0860   -1.0843   -0.0919 N   0  0  0  0  0  0  0  0  0  0  0  0
    2.4133   -2.3113   -0.4092 C   0  0  0  0  0  0  0  0  0  0  0  0
    3.3065   -3.5141   -0.6275 C   0  0  0  0  0  0  0  0  0  0  0  0
    4.6510   -3.2586   -0.5924 N   0  0  0  0  0  0  0  0  0  0  0  0
    5.4954   -4.2979   -0.7534 C   0  0  0  0  0  0  0  0  0  0  0  0
    5.0702   -5.5945   -0.9565 C   0  0  0  0  0  0  0  0  0  0  0  0
    3.6988   -5.8401   -1.0131 C   0  0  0  0  0  0  0  0  0  0  0  0
    2.7541   -4.8052   -0.8555 C   0  0  0  0  0  0  0  0  0  0  0  0
    1.2890   -5.1200   -0.8977 C   0  0  0  0  0  0  0  0  0  0  0  0
    0.7854   -6.3356   -0.3880 C   0  0  0  0  0  0  0  0  0  0  0  0
   -0.5886   -6.6193   -0.3756 C   0  0  0  0  0  0  0  0  0  0  0  0
   -1.4920   -5.6723   -0.8308 C   0  0  0  0  0  0  0  0  0  0  0  0
   -2.8058   -5.9226   -0.7815 F   0  0  0  0  0  0  0  0  0  0  0  0
   -1.0434   -4.4782   -1.3583 C   0  0  0  0  0  0  0  0  0  0  0  0
    0.3308   -4.2388   -1.4390 C   0  0  0  0  0  0  0  0  0  0  0  0
    3.1584    1.2931    0.2159 C   0  0  0  0  0  0  0  0  0  0  0  0
    2.5071    2.4485    0.4044 C   0  0  0  0  0  0  0  0  0  0  0  0
    3.2877    3.6628    0.6839 C   0  0  0  0  0  0  0  0  0  0  0  0
    2.7374    4.7397    0.8704 O   0  0  0  0  0  0  0  0  0  0  0  0
    4.7479    3.5047    0.7386 C   0  0  0  0  0  0  0  0  0  0  0  0
    5.5778    4.5921    1.0326 C   0  0  0  0  0  0  0  0  0  0  0  0
    6.9613    4.4109    1.0661 C   0  0  0  0  0  0  0  0  0  0  0  0
    7.4963    3.1510    0.8063 C   0  0  0  0  0  0  0  0  0  0  0  0
    8.8413    2.9315    0.8215 O   0  0  0  0  0  0  0  0  0  0  0  0
    6.6759    2.0648    0.5204 C   0  0  0  0  0  0  0  0  0  0  0  0
    5.2962    2.2481    0.4939 C   0  0  0  0  0  0  0  0  0  0  0  0
    4.5334    1.1457    0.2232 O   0  0  0  0  0  0  0  0  0  0  0  0
    4.0993   -1.0703   -0.1386 H   0  0  0  0  0  0  0  0  0  0  0  0
    1.8987   -2.0844   -1.3433 H   0  0  0  0  0  0  0  0  0  0  0  0
    1.6984   -2.5091    0.3939 H   0  0  0  0  0  0  0  0  0  0  0  0
    6.5520   -4.0548   -0.7152 H   0  0  0  0  0  0  0  0  0  0  0  0
    5.7873   -6.4001   -1.0738 H   0  0  0  0  0  0  0  0  0  0  0  0
    3.3783   -6.8647   -1.1896 H   0  0  0  0  0  0  0  0  0  0  0  0
    1.4546   -7.0913    0.0175 H   0  0  0  0  0  0  0  0  0  0  0  0
   -0.9561   -7.5692   -0.0020 H   0  0  0  0  0  0  0  0  0  0  0  0
   -1.7523   -3.7380   -1.7172 H   0  0  0  0  0  0  0  0  0  0  0  0
    0.6139   -3.3325   -1.9587 H   0  0  0  0  0  0  0  0  0  0  0  0
    1.4270    2.5418    0.3870 H   0  0  0  0  0  0  0  0  0  0  0  0
    5.1450    5.5691    1.2365 H   0  0  0  0  0  0  0  0  0  0  0  0
    7.5992    5.2588    1.2949 H   0  0  0  0  0  0  0  0  0  0  0  0
    9.2959    3.7680    1.0123 H   0  0  0  0  0  0  0  0  0  0  0  0
    7.1090    1.0903    0.3210 H   0  0  0  0  0  0  0  0  0  0  0  0
  1  2  2  0  0  0  0
  2  3  1  0  0  0  0
  2 18  1  0  0  0  0
  3  4  1  0  0  0  0
  3 30  1  0  0  0  0
  4  5  1  0  0  0  0
  4 31  1  0  0  0  0
  4 32  1  0  0  0  0
  5  6  2  0  0  0  0
  5 10  1  0  0  0  0
  6  7  1  0  0  0  0
  7  8  2  0  0  0  0
  7 33  1  0  0  0  0
  8  9  1  0  0  0  0
  8 34  1  0  0  0  0
  9 10  2  0  0  0  0
  9 35  1  0  0  0  0
 10 11  1  0  0  0  0
 11 12  2  0  0  0  0
 11 17  1  0  0  0  0
 12 13  1  0  0  0  0
 12 36  1  0  0  0  0
 13 14  2  0  0  0  0
 13 37  1  0  0  0  0
 14 15  1  0  0  0  0
 14 16  1  0  0  0  0
 16 17  2  0  0  0  0
 16 38  1  0  0  0  0
 17 39  1  0  0  0  0
 18 19  2  0  0  0  0
 18 29  1  0  0  0  0
 19 20  1  0  0  0  0
 19 40  1  0  0  0  0
 20 21  2  0  0  0  0
 20 22  1  0  0  0  0
 22 23  2  0  0  0  0
 22 28  1  0  0  0  0
 23 24  1  0  0  0  0
 23 41  1  0  0  0  0
 24 25  2  0  0  0  0
 24 42  1  0  0  0  0
 25 26  1  0  0  0  0
 25 27  1  0  0  0  0
 26 43  1  0  0  0  0
 27 28  2  0  0  0  0
 27 44  1  0  0  0  0
 28 29  1  0  0  0  0
M  END
$$$$
