
 OpenBabel01122422383D

 43 46  0  0  0  0  0  0  0  0999 V2000
    0.9561    0.0002   -0.0103 O   0  0  0  0  0  0  0  0  0  0  0  0
    2.1798   -0.0796    0.0537 C   0  0  0  0  0  0  0  0  0  0  0  0
    2.9525    1.0202    0.3457 N   0  0  0  0  0  0  0  0  0  0  0  0
    2.3489    2.3211    0.5323 C   0  0  0  0  0  0  0  0  0  0  0  0
    1.8933    2.5374    1.9507 C   0  0  0  0  0  0  0  0  0  0  0  0
    0.6325    2.1473    2.3580 C   0  0  0  0  0  0  0  0  0  0  0  0
    0.3327    2.3517    3.6814 C   0  0  0  0  0  0  0  0  0  0  0  0
    1.1914    2.8965    4.5613 N   0  0  0  0  0  0  0  0  0  0  0  0
    2.4085    3.2457    4.0844 C   0  0  0  0  0  0  0  0  0  0  0  0
    3.3831    3.8358    5.0366 C   0  0  0  0  0  0  0  0  0  0  0  0
    3.0893    3.9635    6.3983 C   0  0  0  0  0  0  0  0  0  0  0  0
    4.0360    4.5147    7.2593 C   0  0  0  0  0  0  0  0  0  0  0  0
    5.2576    4.9319    6.7494 C   0  0  0  0  0  0  0  0  0  0  0  0
    5.4831    4.7805    5.3931 C   0  0  0  0  0  0  0  0  0  0  0  0
    4.5864    4.2475    4.5371 N   0  0  0  0  0  0  0  0  0  0  0  0
    2.7895    3.0795    2.8008 N   0  0  0  0  0  0  0  0  0  0  0  0
    2.9188   -1.2885   -0.2441 C   0  0  0  0  0  0  0  0  0  0  0  0
    2.6736   -2.3093   -1.1577 C   0  0  0  0  0  0  0  0  0  0  0  0
    1.5981   -2.3083   -2.1454 C   0  0  0  0  0  0  0  0  0  0  0  0
    0.9607   -3.5077   -2.5007 C   0  0  0  0  0  0  0  0  0  0  0  0
   -0.0864   -3.5100   -3.4302 C   0  0  0  0  0  0  0  0  0  0  0  0
   -0.5033   -2.3133   -4.0025 C   0  0  0  0  0  0  0  0  0  0  0  0
   -1.5184   -2.3177   -4.8772 F   0  0  0  0  0  0  0  0  0  0  0  0
    0.1300   -1.1256   -3.6745 C   0  0  0  0  0  0  0  0  0  0  0  0
   -0.2699    0.0306   -4.2217 F   0  0  0  0  0  0  0  0  0  0  0  0
    1.1883   -1.1200   -2.7721 C   0  0  0  0  0  0  0  0  0  0  0  0
    3.6724   -3.2941   -0.9095 C   0  0  0  0  0  0  0  0  0  0  0  0
    4.4856   -2.7901    0.0774 C   0  0  0  0  0  0  0  0  0  0  0  0
    4.0555   -1.5639    0.4688 O   0  0  0  0  0  0  0  0  0  0  0  0
    3.9434    0.9014    0.5090 H   0  0  0  0  0  0  0  0  0  0  0  0
    1.5053    2.4420   -0.1587 H   0  0  0  0  0  0  0  0  0  0  0  0
    3.0977    3.0726    0.2598 H   0  0  0  0  0  0  0  0  0  0  0  0
   -0.0794    1.6911    1.6809 H   0  0  0  0  0  0  0  0  0  0  0  0
   -0.6345    2.0698    4.0869 H   0  0  0  0  0  0  0  0  0  0  0  0
    2.1314    3.6330    6.7881 H   0  0  0  0  0  0  0  0  0  0  0  0
    3.8171    4.6129    8.3187 H   0  0  0  0  0  0  0  0  0  0  0  0
    6.0148    5.3640    7.3920 H   0  0  0  0  0  0  0  0  0  0  0  0
    6.4210    5.0927    4.9428 H   0  0  0  0  0  0  0  0  0  0  0  0
    1.2592   -4.4509   -2.0482 H   0  0  0  0  0  0  0  0  0  0  0  0
   -0.5851   -4.4346   -3.7028 H   0  0  0  0  0  0  0  0  0  0  0  0
    1.6617   -0.1658   -2.5637 H   0  0  0  0  0  0  0  0  0  0  0  0
    3.7988   -4.2471   -1.4046 H   0  0  0  0  0  0  0  0  0  0  0  0
    5.3663   -3.1627    0.5832 H   0  0  0  0  0  0  0  0  0  0  0  0
  1  2  2  0  0  0  0
  2  3  1  0  0  0  0
  2 17  1  0  0  0  0
  3  4  1  0  0  0  0
  3 30  1  0  0  0  0
  4  5  1  0  0  0  0
  4 31  1  0  0  0  0
  4 32  1  0  0  0  0
  5  6  2  0  0  0  0
  5 16  1  0  0  0  0
  6  7  1  0  0  0  0
  6 33  1  0  0  0  0
  7  8  2  0  0  0  0
  7 34  1  0  0  0  0
  8  9  1  0  0  0  0
  9 10  1  0  0  0  0
  9 16  2  0  0  0  0
 10 11  2  0  0  0  0
 10 15  1  0  0  0  0
 11 12  1  0  0  0  0
 11 35  1  0  0  0  0
 12 13  2  0  0  0  0
 12 36  1  0  0  0  0
 13 14  1  0  0  0  0
 13 37  1  0  0  0  0
 14 15  2  0  0  0  0
 14 38  1  0  0  0  0
 17 18  2  0  0  0  0
 17 29  1  0  0  0  0
 18 19  1  0  0  0  0
 18 27  1  0  0  0  0
 19 20  2  0  0  0  0
 19 26  1  0  0  0  0
 20 21  1  0  0  0  0
 20 39  1  0  0  0  0
 21 22  2  0  0  0  0
 21 40  1  0  0  0  0
 22 23  1  0  0  0  0
 22 24  1  0  0  0  0
 24 25  1  0  0  0  0
 24 26  2  0  0  0  0
 26 41  1  0  0  0  0
 27 28  2  0  0  0  0
 27 42  1  0  0  0  0
 28 29  1  0  0  0  0
 28 43  1  0  0  0  0
M  END
$$$$
