
 OpenBabel01122422383D

 54 57  0  0  0  0  0  0  0  0999 V2000
    3.8009    3.8447    1.3085 C   0  0  0  0  0  0  0  0  0  0  0  0
    4.4239    2.5987    0.7770 C   0  0  0  0  0  0  0  0  0  0  0  0
    3.7089    1.5334    0.4689 N   0  0  0  0  0  0  0  0  0  0  0  0
    4.6029    0.5578    0.1699 C   0  0  0  0  0  0  0  0  0  0  0  0
    5.9086    1.0036    0.2696 C   0  0  0  0  0  0  0  0  0  0  0  0
    7.1351    0.2980   -0.0585 C   0  0  0  0  0  0  0  0  0  0  0  0
    8.1152    0.8560   -0.5355 O   0  0  0  0  0  0  0  0  0  0  0  0
    7.1090   -1.0681    0.1762 N   0  0  0  0  0  0  0  0  0  0  0  0
    8.2445   -1.8864   -0.0046 C   0  0  0  0  0  0  0  0  0  0  0  0
    8.0776   -3.0651   -0.7286 C   0  0  0  0  0  0  0  0  0  0  0  0
    9.1642   -3.9067   -0.9314 C   0  0  0  0  0  0  0  0  0  0  0  0
   10.3978   -3.6096   -0.3512 C   0  0  0  0  0  0  0  0  0  0  0  0
   10.5794   -2.4572    0.4205 C   0  0  0  0  0  0  0  0  0  0  0  0
   11.8202   -2.1578    1.0495 N   0  0  0  0  0  0  0  0  0  0  0  0
   12.8322   -3.0722    1.2783 C   0  0  0  0  0  0  0  0  0  0  0  0
   12.7633   -4.2797    1.0782 O   0  0  0  0  0  0  0  0  0  0  0  0
   13.9959   -2.4941    1.7424 N   0  0  0  0  0  0  0  0  0  0  0  0
   15.1084   -3.3695    2.0631 C   0  0  0  0  0  0  0  0  0  0  0  0
   16.4429   -2.6788    2.0049 C   0  0  0  0  0  0  0  0  0  0  0  0
   17.3074   -2.6891    3.1036 C   0  0  0  0  0  0  0  0  0  0  0  0
   18.5623   -2.1133    2.9699 C   0  0  0  0  0  0  0  0  0  0  0  0
   19.0082   -1.5384    1.8334 N   0  0  0  0  0  0  0  0  0  0  0  0
   18.1648   -1.5480    0.7795 C   0  0  0  0  0  0  0  0  0  0  0  0
   16.8926   -2.0978    0.8148 C   0  0  0  0  0  0  0  0  0  0  0  0
    9.4988   -1.5692    0.5538 C   0  0  0  0  0  0  0  0  0  0  0  0
    5.7984    2.3448    0.6662 N   0  0  0  0  0  0  0  0  0  0  0  0
    6.8649    3.2507    0.9823 C   0  0  0  0  0  0  0  0  0  0  0  0
    6.7329    4.6290    0.7704 C   0  0  0  0  0  0  0  0  0  0  0  0
    7.7657    5.5070    1.1157 C   0  0  0  0  0  0  0  0  0  0  0  0
    8.9600    5.0161    1.6326 C   0  0  0  0  0  0  0  0  0  0  0  0
    9.1190    3.6480    1.8158 C   0  0  0  0  0  0  0  0  0  0  0  0
    8.0702    2.7748    1.5179 C   0  0  0  0  0  0  0  0  0  0  0  0
    2.7330    3.6858    1.4890 H   0  0  0  0  0  0  0  0  0  0  0  0
    3.8683    4.6687    0.5929 H   0  0  0  0  0  0  0  0  0  0  0  0
    4.2521    4.1393    2.2610 H   0  0  0  0  0  0  0  0  0  0  0  0
    4.2473   -0.4173   -0.1380 H   0  0  0  0  0  0  0  0  0  0  0  0
    6.2078   -1.5234    0.1470 H   0  0  0  0  0  0  0  0  0  0  0  0
    7.1283   -3.3044   -1.1981 H   0  0  0  0  0  0  0  0  0  0  0  0
    9.0620   -4.7960   -1.5475 H   0  0  0  0  0  0  0  0  0  0  0  0
   11.2156   -4.2997   -0.5399 H   0  0  0  0  0  0  0  0  0  0  0  0
   11.9123   -1.2469    1.4727 H   0  0  0  0  0  0  0  0  0  0  0  0
   13.9230   -1.6363    2.2651 H   0  0  0  0  0  0  0  0  0  0  0  0
   15.1339   -4.2211    1.3725 H   0  0  0  0  0  0  0  0  0  0  0  0
   14.9177   -3.7725    3.0644 H   0  0  0  0  0  0  0  0  0  0  0  0
   17.0274   -3.1547    4.0429 H   0  0  0  0  0  0  0  0  0  0  0  0
   19.2678   -2.1100    3.7961 H   0  0  0  0  0  0  0  0  0  0  0  0
   18.5545   -1.0978   -0.1291 H   0  0  0  0  0  0  0  0  0  0  0  0
   16.2732   -2.0944   -0.0768 H   0  0  0  0  0  0  0  0  0  0  0  0
    9.6071   -0.6645    1.1449 H   0  0  0  0  0  0  0  0  0  0  0  0
    5.8647    5.0599    0.2866 H   0  0  0  0  0  0  0  0  0  0  0  0
    7.6427    6.5758    0.9591 H   0  0  0  0  0  0  0  0  0  0  0  0
    9.7693    5.6966    1.8815 H   0  0  0  0  0  0  0  0  0  0  0  0
   10.0586    3.2527    2.1921 H   0  0  0  0  0  0  0  0  0  0  0  0
    8.2332    1.7225    1.7265 H   0  0  0  0  0  0  0  0  0  0  0  0
  1  2  1  0  0  0  0
  1 33  1  0  0  0  0
  1 34  1  0  0  0  0
  1 35  1  0  0  0  0
  2  3  2  0  0  0  0
  2 26  1  0  0  0  0
  3  4  1  0  0  0  0
  4  5  2  0  0  0  0
  4 36  1  0  0  0  0
  5  6  1  0  0  0  0
  5 26  1  0  0  0  0
  6  7  2  0  0  0  0
  6  8  1  0  0  0  0
  8  9  1  0  0  0  0
  8 37  1  0  0  0  0
  9 10  2  0  0  0  0
  9 25  1  0  0  0  0
 10 11  1  0  0  0  0
 10 38  1  0  0  0  0
 11 12  2  0  0  0  0
 11 39  1  0  0  0  0
 12 13  1  0  0  0  0
 12 40  1  0  0  0  0
 13 14  1  0  0  0  0
 13 25  2  0  0  0  0
 14 15  1  0  0  0  0
 14 41  1  0  0  0  0
 15 16  2  0  0  0  0
 15 17  1  0  0  0  0
 17 18  1  0  0  0  0
 17 42  1  0  0  0  0
 18 19  1  0  0  0  0
 18 43  1  0  0  0  0
 18 44  1  0  0  0  0
 19 20  2  0  0  0  0
 19 24  1  0  0  0  0
 20 21  1  0  0  0  0
 20 45  1  0  0  0  0
 21 22  2  0  0  0  0
 21 46  1  0  0  0  0
 22 23  1  0  0  0  0
 23 24  2  0  0  0  0
 23 47  1  0  0  0  0
 24 48  1  0  0  0  0
 25 49  1  0  0  0  0
 26 27  1  0  0  0  0
 27 28  2  0  0  0  0
 27 32  1  0  0  0  0
 28 29  1  0  0  0  0
 28 50  1  0  0  0  0
 29 30  2  0  0  0  0
 29 51  1  0  0  0  0
 30 31  1  0  0  0  0
 30 52  1  0  0  0  0
 31 32  2  0  0  0  0
 31 53  1  0  0  0  0
 32 54  1  0  0  0  0
M  END
$$$$
