
 OpenBabel01122422353D

 48 51  0  0  0  0  0  0  0  0999 V2000
    4.0742    1.2857    0.7702 C   0  0  0  0  0  0  0  0  0  0  0  0
    3.1408    0.7049   -0.1398 O   0  0  0  0  0  0  0  0  0  0  0  0
    3.6212   -0.3181   -0.9274 C   0  0  0  0  0  0  0  0  0  0  0  0
    4.4282   -1.3694   -0.4705 C   0  0  0  0  0  0  0  0  0  0  0  0
    4.6723   -1.6449    0.9594 C   0  0  0  0  0  0  0  0  0  0  0  0
    3.6981   -1.6238    1.7007 O   0  0  0  0  0  0  0  0  0  0  0  0
    5.9836   -1.8912    1.3373 N   0  0  0  0  0  0  0  0  0  0  0  0
    6.4323   -2.0607    2.6739 C   0  0  0  0  0  0  0  0  0  0  0  0
    5.5959   -2.1056    3.7872 C   0  0  0  0  0  0  0  0  0  0  0  0
    6.1327   -2.1821    5.0793 C   0  0  0  0  0  0  0  0  0  0  0  0
    7.5096   -2.2280    5.2411 C   0  0  0  0  0  0  0  0  0  0  0  0
    8.0225   -2.2558    6.5532 N   0  0  0  0  0  0  0  0  0  0  0  0
    9.3700   -2.2437    6.8502 C   0  0  0  0  0  0  0  0  0  0  0  0
   10.2849   -2.1876    6.0309 O   0  0  0  0  0  0  0  0  0  0  0  0
    9.7653   -2.2809    8.2904 C   0  0  0  0  0  0  0  0  0  0  0  0
    8.9645   -2.8119    9.3087 C   0  0  0  0  0  0  0  0  0  0  0  0
    9.4626   -2.8930   10.6167 C   0  0  0  0  0  0  0  0  0  0  0  0
   10.7533   -2.4495   10.9132 C   0  0  0  0  0  0  0  0  0  0  0  0
   11.5491   -1.9088    9.9090 C   0  0  0  0  0  0  0  0  0  0  0  0
   11.0565   -1.8240    8.6072 C   0  0  0  0  0  0  0  0  0  0  0  0
    8.3307   -2.2364    4.1760 N   0  0  0  0  0  0  0  0  0  0  0  0
    7.7922   -2.1540    2.9353 C   0  0  0  0  0  0  0  0  0  0  0  0
    4.8458   -2.3089   -1.3962 C   0  0  0  0  0  0  0  0  0  0  0  0
    4.5174   -2.2823   -2.7080 N   0  0  0  0  0  0  0  0  0  0  0  0
    3.6777   -1.3224   -3.1307 C   0  0  0  0  0  0  0  0  0  0  0  0
    3.2629   -1.3471   -4.4569 C   0  0  0  0  0  0  0  0  0  0  0  0
    2.3723   -0.4034   -4.9731 C   0  0  0  0  0  0  0  0  0  0  0  0
    1.8827    0.5992   -4.1490 C   0  0  0  0  0  0  0  0  0  0  0  0
    2.2899    0.6517   -2.8150 C   0  0  0  0  0  0  0  0  0  0  0  0
    3.1891   -0.3061   -2.2810 C   0  0  0  0  0  0  0  0  0  0  0  0
    3.8432    2.3521    0.8542 H   0  0  0  0  0  0  0  0  0  0  0  0
    5.1127    1.1964    0.4325 H   0  0  0  0  0  0  0  0  0  0  0  0
    3.9518    0.8529    1.7666 H   0  0  0  0  0  0  0  0  0  0  0  0
    6.7044   -1.8609    0.6239 H   0  0  0  0  0  0  0  0  0  0  0  0
    4.5159   -2.0750    3.6977 H   0  0  0  0  0  0  0  0  0  0  0  0
    5.4582   -2.1918    5.9282 H   0  0  0  0  0  0  0  0  0  0  0  0
    7.3527   -2.2091    7.3035 H   0  0  0  0  0  0  0  0  0  0  0  0
    7.9755   -3.2097    9.1101 H   0  0  0  0  0  0  0  0  0  0  0  0
    8.8533   -3.3260   11.4070 H   0  0  0  0  0  0  0  0  0  0  0  0
   11.1449   -2.5380   11.9237 H   0  0  0  0  0  0  0  0  0  0  0  0
   12.5587   -1.5699   10.1275 H   0  0  0  0  0  0  0  0  0  0  0  0
   11.6966   -1.4161    7.8257 H   0  0  0  0  0  0  0  0  0  0  0  0
    8.5336   -2.1468    2.1413 H   0  0  0  0  0  0  0  0  0  0  0  0
    5.4390   -3.1721   -1.1075 H   0  0  0  0  0  0  0  0  0  0  0  0
    3.6329   -2.1373   -5.1065 H   0  0  0  0  0  0  0  0  0  0  0  0
    2.0602   -0.4623   -6.0131 H   0  0  0  0  0  0  0  0  0  0  0  0
    1.1814    1.3343   -4.5371 H   0  0  0  0  0  0  0  0  0  0  0  0
    1.8862    1.4364   -2.1773 H   0  0  0  0  0  0  0  0  0  0  0  0
  1  2  1  0  0  0  0
  1 31  1  0  0  0  0
  1 32  1  0  0  0  0
  1 33  1  0  0  0  0
  2  3  1  0  0  0  0
  3  4  2  0  0  0  0
  3 30  1  0  0  0  0
  4  5  1  0  0  0  0
  4 23  1  0  0  0  0
  5  6  2  0  0  0  0
  5  7  1  0  0  0  0
  7  8  1  0  0  0  0
  7 34  1  0  0  0  0
  8  9  2  0  0  0  0
  8 22  1  0  0  0  0
  9 10  1  0  0  0  0
  9 35  1  0  0  0  0
 10 11  2  0  0  0  0
 10 36  1  0  0  0  0
 11 12  1  0  0  0  0
 11 21  1  0  0  0  0
 12 13  1  0  0  0  0
 12 37  1  0  0  0  0
 13 14  2  0  0  0  0
 13 15  1  0  0  0  0
 15 16  2  0  0  0  0
 15 20  1  0  0  0  0
 16 17  1  0  0  0  0
 16 38  1  0  0  0  0
 17 18  2  0  0  0  0
 17 39  1  0  0  0  0
 18 19  1  0  0  0  0
 18 40  1  0  0  0  0
 19 20  2  0  0  0  0
 19 41  1  0  0  0  0
 20 42  1  0  0  0  0
 21 22  2  0  0  0  0
 22 43  1  0  0  0  0
 23 24  2  0  0  0  0
 23 44  1  0  0  0  0
 24 25  1  0  0  0  0
 25 26  2  0  0  0  0
 25 30  1  0  0  0  0
 26 27  1  0  0  0  0
 26 45  1  0  0  0  0
 27 28  2  0  0  0  0
 27 46  1  0  0  0  0
 28 29  1  0  0  0  0
 28 47  1  0  0  0  0
 29 30  2  0  0  0  0
 29 48  1  0  0  0  0
M  END
$$$$
