
 OpenBabel01122422353D

 49 52  0  0  0  0  0  0  0  0999 V2000
    1.0845    0.6952    0.8482 N   0  0  0  0  0  0  0  0  0  0  0  0
    2.3334    0.1489    0.3262 C   0  0  0  0  0  0  0  0  0  0  0  0
    2.8574    0.9815   -0.8114 C   0  0  0  0  0  0  0  0  0  0  0  0
    3.1231    2.3391   -0.6292 C   0  0  0  0  0  0  0  0  0  0  0  0
    3.4914    3.1418   -1.7131 C   0  0  0  0  0  0  0  0  0  0  0  0
    3.6522    2.6186   -3.0139 C   0  0  0  0  0  0  0  0  0  0  0  0
    3.9461    3.5162   -4.1747 C   0  0  0  0  0  0  0  0  0  0  0  0
    4.7126    4.6864   -3.9356 C   0  0  0  0  0  0  0  0  0  0  0  0
    5.0156    5.6096   -4.9381 C   0  0  0  0  0  0  0  0  0  0  0  0
    4.5873    5.3855   -6.2352 C   0  0  0  0  0  0  0  0  0  0  0  0
    3.8336    4.2509   -6.5229 C   0  0  0  0  0  0  0  0  0  0  0  0
    3.5035    3.3183   -5.5138 C   0  0  0  0  0  0  0  0  0  0  0  0
    2.5888    2.2055   -5.9349 C   0  0  0  0  0  0  0  0  0  0  0  0
    1.6438    1.9054   -5.2179 O   0  0  0  0  0  0  0  0  0  0  0  0
    2.9214    1.5925   -7.1404 N   0  0  0  0  0  0  0  0  0  0  0  0
    2.2818    0.4694   -7.7139 C   0  0  0  0  0  0  0  0  0  0  0  0
    1.0787   -0.0553   -7.2523 C   0  0  0  0  0  0  0  0  0  0  0  0
    0.5291   -1.2103   -7.8230 C   0  0  0  0  0  0  0  0  0  0  0  0
    1.1730   -1.8821   -8.8636 C   0  0  0  0  0  0  0  0  0  0  0  0
    0.6313   -3.0766   -9.4201 N   0  0  0  0  0  0  0  0  0  0  0  0
    1.2734   -3.9983  -10.2299 C   0  0  0  0  0  0  0  0  0  0  0  0
    0.4202   -4.9716  -10.5660 C   0  0  0  0  0  0  0  0  0  0  0  0
   -0.7915   -4.7151   -9.9899 N   0  0  0  0  0  0  0  0  0  0  0  0
   -0.7196   -3.5241   -9.2427 C   0  0  0  0  0  0  0  0  0  0  0  0
   -1.6589   -3.0361   -8.6296 O   0  0  0  0  0  0  0  0  0  0  0  0
    2.3754   -1.3413   -9.3384 C   0  0  0  0  0  0  0  0  0  0  0  0
    2.9113   -0.1661   -8.7884 C   0  0  0  0  0  0  0  0  0  0  0  0
    3.5037    1.2282   -3.1419 C   0  0  0  0  0  0  0  0  0  0  0  0
    3.0717    0.4285   -2.0749 C   0  0  0  0  0  0  0  0  0  0  0  0
    0.7159    0.0745    1.5625 H   0  0  0  0  0  0  0  0  0  0  0  0
    0.3993    0.7105    0.0912 H   0  0  0  0  0  0  0  0  0  0  0  0
    2.1606   -0.8825   -0.0012 H   0  0  0  0  0  0  0  0  0  0  0  0
    3.0848    0.1180    1.1226 H   0  0  0  0  0  0  0  0  0  0  0  0
    2.9888    2.7913    0.3516 H   0  0  0  0  0  0  0  0  0  0  0  0
    3.6112    4.2037   -1.5134 H   0  0  0  0  0  0  0  0  0  0  0  0
    5.0868    4.9080   -2.9372 H   0  0  0  0  0  0  0  0  0  0  0  0
    5.5769    6.5087   -4.6915 H   0  0  0  0  0  0  0  0  0  0  0  0
    4.8179    6.1027   -7.0171 H   0  0  0  0  0  0  0  0  0  0  0  0
    3.4685    4.1250   -7.5379 H   0  0  0  0  0  0  0  0  0  0  0  0
    3.7609    1.9077   -7.6087 H   0  0  0  0  0  0  0  0  0  0  0  0
    0.5242    0.4080   -6.4434 H   0  0  0  0  0  0  0  0  0  0  0  0
   -0.3993   -1.5772   -7.3962 H   0  0  0  0  0  0  0  0  0  0  0  0
    2.3139   -3.9193  -10.4998 H   0  0  0  0  0  0  0  0  0  0  0  0
    0.5919   -5.8464  -11.1777 H   0  0  0  0  0  0  0  0  0  0  0  0
   -1.6329   -5.2607  -10.0666 H   0  0  0  0  0  0  0  0  0  0  0  0
    2.9125   -1.8032  -10.1625 H   0  0  0  0  0  0  0  0  0  0  0  0
    3.8394    0.2226   -9.2001 H   0  0  0  0  0  0  0  0  0  0  0  0
    3.6607    0.7354   -4.0972 H   0  0  0  0  0  0  0  0  0  0  0  0
    2.8714   -0.6240   -2.2609 H   0  0  0  0  0  0  0  0  0  0  0  0
  1  2  1  0  0  0  0
  1 30  1  0  0  0  0
  1 31  1  0  0  0  0
  2  3  1  0  0  0  0
  2 32  1  0  0  0  0
  2 33  1  0  0  0  0
  3  4  2  0  0  0  0
  3 29  1  0  0  0  0
  4  5  1  0  0  0  0
  4 34  1  0  0  0  0
  5  6  2  0  0  0  0
  5 35  1  0  0  0  0
  6  7  1  0  0  0  0
  6 28  1  0  0  0  0
  7  8  2  0  0  0  0
  7 12  1  0  0  0  0
  8  9  1  0  0  0  0
  8 36  1  0  0  0  0
  9 10  2  0  0  0  0
  9 37  1  0  0  0  0
 10 11  1  0  0  0  0
 10 38  1  0  0  0  0
 11 12  2  0  0  0  0
 11 39  1  0  0  0  0
 12 13  1  0  0  0  0
 13 14  2  0  0  0  0
 13 15  1  0  0  0  0
 15 16  1  0  0  0  0
 15 40  1  0  0  0  0
 16 17  2  0  0  0  0
 16 27  1  0  0  0  0
 17 18  1  0  0  0  0
 17 41  1  0  0  0  0
 18 19  2  0  0  0  0
 18 42  1  0  0  0  0
 19 20  1  0  0  0  0
 19 26  1  0  0  0  0
 20 21  1  0  0  0  0
 20 24  1  0  0  0  0
 21 22  2  0  0  0  0
 21 43  1  0  0  0  0
 22 23  1  0  0  0  0
 22 44  1  0  0  0  0
 23 24  1  0  0  0  0
 23 45  1  0  0  0  0
 24 25  2  0  0  0  0
 26 27  2  0  0  0  0
 26 46  1  0  0  0  0
 27 47  1  0  0  0  0
 28 29  2  0  0  0  0
 28 48  1  0  0  0  0
 29 49  1  0  0  0  0
M  END
$$$$
