
 OpenBabel01122422383D

 42 45  0  0  0  0  0  0  0  0999 V2000
    0.9363    0.2071    0.4283 O   0  0  0  0  0  0  0  0  0  0  0  0
    2.1052    0.0510    0.0854 C   0  0  0  0  0  0  0  0  0  0  0  0
    2.8191   -1.0816    0.3896 N   0  0  0  0  0  0  0  0  0  0  0  0
    2.1955   -2.1830    1.0895 C   0  0  0  0  0  0  0  0  0  0  0  0
    2.3615   -2.0025    2.5545 C   0  0  0  0  0  0  0  0  0  0  0  0
    1.4954   -1.3344    3.4009 C   0  0  0  0  0  0  0  0  0  0  0  0
    1.9290   -1.3838    4.6831 O   0  0  0  0  0  0  0  0  0  0  0  0
    3.0910   -2.0891    4.6848 C   0  0  0  0  0  0  0  0  0  0  0  0
    3.8590   -2.3730    5.8126 C   0  0  0  0  0  0  0  0  0  0  0  0
    5.0232   -3.1169    5.6004 C   0  0  0  0  0  0  0  0  0  0  0  0
    5.3695   -3.5402    4.3186 C   0  0  0  0  0  0  0  0  0  0  0  0
    6.4933   -4.2503    4.1498 F   0  0  0  0  0  0  0  0  0  0  0  0
    4.5829   -3.2469    3.2007 C   0  0  0  0  0  0  0  0  0  0  0  0
    3.4075   -2.4967    3.3907 C   0  0  0  0  0  0  0  0  0  0  0  0
    2.8388    1.1049   -0.6874 C   0  0  0  0  0  0  0  0  0  0  0  0
    2.3252    2.3448   -0.6328 C   0  0  0  0  0  0  0  0  0  0  0  0
    2.8535    3.4172   -1.3509 N   0  0  0  0  0  0  0  0  0  0  0  0
    2.2131    4.7006   -1.2948 C   0  0  0  0  0  0  0  0  0  0  0  0
    2.9621    5.8782   -1.1624 C   0  0  0  0  0  0  0  0  0  0  0  0
    2.3230    7.1187   -1.0521 C   0  0  0  0  0  0  0  0  0  0  0  0
    0.9316    7.2015   -1.1054 C   0  0  0  0  0  0  0  0  0  0  0  0
    0.1750    6.0453   -1.2623 C   0  0  0  0  0  0  0  0  0  0  0  0
    0.8136    4.8111   -1.3419 C   0  0  0  0  0  0  0  0  0  0  0  0
    0.0486    3.7238   -1.5321 F   0  0  0  0  0  0  0  0  0  0  0  0
    3.9700    3.2436   -2.1883 C   0  0  0  0  0  0  0  0  0  0  0  0
    4.5043    4.1007   -2.8865 O   0  0  0  0  0  0  0  0  0  0  0  0
    4.5082    1.8520   -2.2682 C   0  0  0  0  0  0  0  0  0  0  0  0
    3.9644    0.8535   -1.5585 C   0  0  0  0  0  0  0  0  0  0  0  0
    3.8175   -1.1122    0.2495 H   0  0  0  0  0  0  0  0  0  0  0  0
    2.6732   -3.1048    0.7482 H   0  0  0  0  0  0  0  0  0  0  0  0
    1.1320   -2.2397    0.8230 H   0  0  0  0  0  0  0  0  0  0  0  0
    0.5699   -0.7987    3.2380 H   0  0  0  0  0  0  0  0  0  0  0  0
    3.5622   -2.0324    6.7975 H   0  0  0  0  0  0  0  0  0  0  0  0
    5.6663   -3.3704    6.4372 H   0  0  0  0  0  0  0  0  0  0  0  0
    4.8859   -3.5988    2.2211 H   0  0  0  0  0  0  0  0  0  0  0  0
    1.4708    2.5646    0.0041 H   0  0  0  0  0  0  0  0  0  0  0  0
    4.0476    5.8423   -1.1064 H   0  0  0  0  0  0  0  0  0  0  0  0
    2.9163    8.0214   -0.9235 H   0  0  0  0  0  0  0  0  0  0  0  0
    0.4402    8.1700   -1.0321 H   0  0  0  0  0  0  0  0  0  0  0  0
   -0.9072    6.0922   -1.3295 H   0  0  0  0  0  0  0  0  0  0  0  0
    5.3306    1.7008   -2.9569 H   0  0  0  0  0  0  0  0  0  0  0  0
    4.3453   -0.1541   -1.6719 H   0  0  0  0  0  0  0  0  0  0  0  0
  1  2  2  0  0  0  0
  2  3  1  0  0  0  0
  2 15  1  0  0  0  0
  3  4  1  0  0  0  0
  3 29  1  0  0  0  0
  4  5  1  0  0  0  0
  4 30  1  0  0  0  0
  4 31  1  0  0  0  0
  5  6  2  0  0  0  0
  5 14  1  0  0  0  0
  6  7  1  0  0  0  0
  6 32  1  0  0  0  0
  7  8  1  0  0  0  0
  8  9  2  0  0  0  0
  8 14  1  0  0  0  0
  9 10  1  0  0  0  0
  9 33  1  0  0  0  0
 10 11  2  0  0  0  0
 10 34  1  0  0  0  0
 11 12  1  0  0  0  0
 11 13  1  0  0  0  0
 13 14  2  0  0  0  0
 13 35  1  0  0  0  0
 15 16  2  0  0  0  0
 15 28  1  0  0  0  0
 16 17  1  0  0  0  0
 16 36  1  0  0  0  0
 17 18  1  0  0  0  0
 17 25  1  0  0  0  0
 18 19  2  0  0  0  0
 18 23  1  0  0  0  0
 19 20  1  0  0  0  0
 19 37  1  0  0  0  0
 20 21  2  0  0  0  0
 20 38  1  0  0  0  0
 21 22  1  0  0  0  0
 21 39  1  0  0  0  0
 22 23  2  0  0  0  0
 22 40  1  0  0  0  0
 23 24  1  0  0  0  0
 25 26  2  0  0  0  0
 25 27  1  0  0  0  0
 27 28  2  0  0  0  0
 27 41  1  0  0  0  0
 28 42  1  0  0  0  0
M  END
$$$$
