
 OpenBabel01122422383D

 48 51  0  0  0  0  0  0  0  0999 V2000
    2.4873    0.2835    0.0310 C   0  0  0  0  0  0  0  0  0  0  0  0
    0.9898    0.1200    0.0332 C   0  0  0  0  0  0  0  0  0  0  0  0
    0.2151    1.2979    0.0202 C   0  0  0  0  0  0  0  0  0  0  0  0
   -1.1790    1.2437    0.0206 C   0  0  0  0  0  0  0  0  0  0  0  0
   -1.8159    0.0059    0.0236 C   0  0  0  0  0  0  0  0  0  0  0  0
   -3.3036   -0.0505    0.0471 C   0  0  0  0  0  0  0  0  0  0  0  0
   -3.9175    0.8667   -0.4987 O   0  0  0  0  0  0  0  0  0  0  0  0
   -3.8453   -1.1154    0.7437 N   0  0  0  0  0  0  0  0  0  0  0  0
   -5.2178   -1.4088    0.8944 C   0  0  0  0  0  0  0  0  0  0  0  0
   -6.2195   -0.8138    0.1254 C   0  0  0  0  0  0  0  0  0  0  0  0
   -7.5626   -1.1258    0.3471 C   0  0  0  0  0  0  0  0  0  0  0  0
   -7.9159   -2.0361    1.3397 C   0  0  0  0  0  0  0  0  0  0  0  0
   -6.9232   -2.6559    2.0943 C   0  0  0  0  0  0  0  0  0  0  0  0
   -5.5780   -2.3546    1.8631 C   0  0  0  0  0  0  0  0  0  0  0  0
   -1.0584   -1.1653   -0.0171 C   0  0  0  0  0  0  0  0  0  0  0  0
    0.3421   -1.1360    0.0075 C   0  0  0  0  0  0  0  0  0  0  0  0
    1.0964   -2.3439    0.0550 N   0  0  0  0  0  0  0  0  0  0  0  0
    0.5798   -3.6361    0.0478 C   0  0  0  0  0  0  0  0  0  0  0  0
   -0.5822   -3.9655   -0.1516 O   0  0  0  0  0  0  0  0  0  0  0  0
    1.5351   -4.7221    0.3548 C   0  0  0  0  0  0  0  0  0  0  0  0
    2.7612   -4.7532   -0.2968 C   0  0  0  0  0  0  0  0  0  0  0  0
    3.7298   -5.6567   -0.0338 N   0  0  0  0  0  0  0  0  0  0  0  0
    3.4376   -6.5707    0.9093 C   0  0  0  0  0  0  0  0  0  0  0  0
    4.4699   -7.4202    1.1515 O   0  0  0  0  0  0  0  0  0  0  0  0
    2.2345   -6.6756    1.6129 C   0  0  0  0  0  0  0  0  0  0  0  0
    2.0033   -7.6513    2.6002 C   0  0  0  0  0  0  0  0  0  0  0  0
    0.7833   -7.6722    3.2477 C   0  0  0  0  0  0  0  0  0  0  0  0
   -0.2154   -6.8157    2.9689 N   0  0  0  0  0  0  0  0  0  0  0  0
    0.0244   -5.8833    2.0131 C   0  0  0  0  0  0  0  0  0  0  0  0
    1.2350   -5.7337    1.3084 C   0  0  0  0  0  0  0  0  0  0  0  0
    2.7729    1.3292    0.1939 H   0  0  0  0  0  0  0  0  0  0  0  0
    2.8998   -0.0242   -0.9338 H   0  0  0  0  0  0  0  0  0  0  0  0
    2.9464   -0.2961    0.8366 H   0  0  0  0  0  0  0  0  0  0  0  0
    0.6915    2.2762    0.0141 H   0  0  0  0  0  0  0  0  0  0  0  0
   -1.7612    2.1617    0.0217 H   0  0  0  0  0  0  0  0  0  0  0  0
   -3.2148   -1.6875    1.2898 H   0  0  0  0  0  0  0  0  0  0  0  0
   -5.9818   -0.1097   -0.6662 H   0  0  0  0  0  0  0  0  0  0  0  0
   -8.3301   -0.6490   -0.2568 H   0  0  0  0  0  0  0  0  0  0  0  0
   -8.9634   -2.2627    1.5211 H   0  0  0  0  0  0  0  0  0  0  0  0
   -7.1953   -3.3686    2.8680 H   0  0  0  0  0  0  0  0  0  0  0  0
   -4.8233   -2.8481    2.4689 H   0  0  0  0  0  0  0  0  0  0  0  0
   -1.5985   -2.1011   -0.0854 H   0  0  0  0  0  0  0  0  0  0  0  0
    2.0942   -2.2271    0.1895 H   0  0  0  0  0  0  0  0  0  0  0  0
    3.0101   -4.0388   -1.0775 H   0  0  0  0  0  0  0  0  0  0  0  0
    5.1305   -7.0708    0.5266 H   0  0  0  0  0  0  0  0  0  0  0  0
    2.7691   -8.3742    2.8651 H   0  0  0  0  0  0  0  0  0  0  0  0
    0.5730   -8.3964    4.0300 H   0  0  0  0  0  0  0  0  0  0  0  0
   -0.8319   -5.2390    1.8273 H   0  0  0  0  0  0  0  0  0  0  0  0
  1  2  1  0  0  0  0
  1 31  1  0  0  0  0
  1 32  1  0  0  0  0
  1 33  1  0  0  0  0
  2  3  2  0  0  0  0
  2 16  1  0  0  0  0
  3  4  1  0  0  0  0
  3 34  1  0  0  0  0
  4  5  2  0  0  0  0
  4 35  1  0  0  0  0
  5  6  1  0  0  0  0
  5 15  1  0  0  0  0
  6  7  2  0  0  0  0
  6  8  1  0  0  0  0
  8  9  1  0  0  0  0
  8 36  1  0  0  0  0
  9 10  2  0  0  0  0
  9 14  1  0  0  0  0
 10 11  1  0  0  0  0
 10 37  1  0  0  0  0
 11 12  2  0  0  0  0
 11 38  1  0  0  0  0
 12 13  1  0  0  0  0
 12 39  1  0  0  0  0
 13 14  2  0  0  0  0
 13 40  1  0  0  0  0
 14 41  1  0  0  0  0
 15 16  2  0  0  0  0
 15 42  1  0  0  0  0
 16 17  1  0  0  0  0
 17 18  1  0  0  0  0
 17 43  1  0  0  0  0
 18 19  2  0  0  0  0
 18 20  1  0  0  0  0
 20 21  2  0  0  0  0
 20 30  1  0  0  0  0
 21 22  1  0  0  0  0
 21 44  1  0  0  0  0
 22 23  2  0  0  0  0
 23 24  1  0  0  0  0
 23 25  1  0  0  0  0
 24 45  1  0  0  0  0
 25 26  2  0  0  0  0
 25 30  1  0  0  0  0
 26 27  1  0  0  0  0
 26 46  1  0  0  0  0
 27 28  2  0  0  0  0
 27 47  1  0  0  0  0
 28 29  1  0  0  0  0
 29 30  2  0  0  0  0
 29 48  1  0  0  0  0
M  END
$$$$
