
 OpenBabel01122422393D

 41 44  0  0  0  0  0  0  0  0999 V2000
    5.1491   -1.9124    1.1624 O   0  0  0  0  0  0  0  0  0  0  0  0
    4.4640   -1.0283    0.6494 C   0  0  0  0  0  0  0  0  0  0  0  0
    3.1847   -1.2250    0.1616 N   0  0  0  0  0  0  0  0  0  0  0  0
    2.4178   -2.3646    0.3578 C   0  0  0  0  0  0  0  0  0  0  0  0
    2.6265   -3.2696    1.3257 C   0  0  0  0  0  0  0  0  0  0  0  0
    1.8333   -4.4628    1.4303 C   0  0  0  0  0  0  0  0  0  0  0  0
    0.9116   -4.7314    0.5029 C   0  0  0  0  0  0  0  0  0  0  0  0
    0.6243   -3.8443   -0.5274 N   0  0  0  0  0  0  0  0  0  0  0  0
   -0.2801   -4.2311   -1.5637 C   0  0  0  0  0  0  0  0  0  0  0  0
   -0.1172   -5.4770   -2.1907 C   0  0  0  0  0  0  0  0  0  0  0  0
   -0.9425   -5.8509   -3.2518 C   0  0  0  0  0  0  0  0  0  0  0  0
   -1.9670   -5.0032   -3.6653 C   0  0  0  0  0  0  0  0  0  0  0  0
   -2.1632   -3.7815   -3.0218 C   0  0  0  0  0  0  0  0  0  0  0  0
   -1.3126   -3.3880   -1.9850 C   0  0  0  0  0  0  0  0  0  0  0  0
    1.2733   -2.5931   -0.6142 C   0  0  0  0  0  0  0  0  0  0  0  0
    1.0490   -1.7081   -1.4438 O   0  0  0  0  0  0  0  0  0  0  0  0
    5.0505    0.3424    0.5846 C   0  0  0  0  0  0  0  0  0  0  0  0
    6.3897    0.4883    0.9832 C   0  0  0  0  0  0  0  0  0  0  0  0
    6.9456    1.7558    1.2150 C   0  0  0  0  0  0  0  0  0  0  0  0
    8.2492    1.8930    1.7118 C   0  0  0  0  0  0  0  0  0  0  0  0
    8.7291    3.1491    2.0557 C   0  0  0  0  0  0  0  0  0  0  0  0
    7.8966    4.2323    1.8594 C   0  0  0  0  0  0  0  0  0  0  0  0
    6.6588    4.1421    1.3226 N   0  0  0  0  0  0  0  0  0  0  0  0
    6.1767    2.9178    1.0098 C   0  0  0  0  0  0  0  0  0  0  0  0
    4.8837    2.7422    0.5072 C   0  0  0  0  0  0  0  0  0  0  0  0
    4.1200    3.8189    0.2559 F   0  0  0  0  0  0  0  0  0  0  0  0
    4.3088    1.4844    0.2997 C   0  0  0  0  0  0  0  0  0  0  0  0
    2.8065   -0.5908   -0.5404 H   0  0  0  0  0  0  0  0  0  0  0  0
    3.4102   -3.1546    2.0682 H   0  0  0  0  0  0  0  0  0  0  0  0
    2.0290   -5.1462    2.2500 H   0  0  0  0  0  0  0  0  0  0  0  0
    0.3211   -5.6423    0.5552 H   0  0  0  0  0  0  0  0  0  0  0  0
    0.6975   -6.1374   -1.9035 H   0  0  0  0  0  0  0  0  0  0  0  0
   -0.7727   -6.7937   -3.7652 H   0  0  0  0  0  0  0  0  0  0  0  0
   -2.6076   -5.2905   -4.4950 H   0  0  0  0  0  0  0  0  0  0  0  0
   -2.9727   -3.1273   -3.3346 H   0  0  0  0  0  0  0  0  0  0  0  0
   -1.4797   -2.4318   -1.4955 H   0  0  0  0  0  0  0  0  0  0  0  0
    6.9848   -0.4022    1.1864 H   0  0  0  0  0  0  0  0  0  0  0  0
    8.8819    1.0214    1.8656 H   0  0  0  0  0  0  0  0  0  0  0  0
    9.7178    3.2759    2.4824 H   0  0  0  0  0  0  0  0  0  0  0  0
    8.2051    5.2346    2.1438 H   0  0  0  0  0  0  0  0  0  0  0  0
    3.2726    1.4499   -0.0182 H   0  0  0  0  0  0  0  0  0  0  0  0
  1  2  2  0  0  0  0
  2  3  1  0  0  0  0
  2 17  1  0  0  0  0
  3  4  1  0  0  0  0
  3 28  1  0  0  0  0
  4  5  2  0  0  0  0
  4 15  1  0  0  0  0
  5  6  1  0  0  0  0
  5 29  1  0  0  0  0
  6  7  2  0  0  0  0
  6 30  1  0  0  0  0
  7  8  1  0  0  0  0
  7 31  1  0  0  0  0
  8  9  1  0  0  0  0
  8 15  1  0  0  0  0
  9 10  2  0  0  0  0
  9 14  1  0  0  0  0
 10 11  1  0  0  0  0
 10 32  1  0  0  0  0
 11 12  2  0  0  0  0
 11 33  1  0  0  0  0
 12 13  1  0  0  0  0
 12 34  1  0  0  0  0
 13 14  2  0  0  0  0
 13 35  1  0  0  0  0
 14 36  1  0  0  0  0
 15 16  2  0  0  0  0
 17 18  2  0  0  0  0
 17 27  1  0  0  0  0
 18 19  1  0  0  0  0
 18 37  1  0  0  0  0
 19 20  2  0  0  0  0
 19 24  1  0  0  0  0
 20 21  1  0  0  0  0
 20 38  1  0  0  0  0
 21 22  2  0  0  0  0
 21 39  1  0  0  0  0
 22 23  1  0  0  0  0
 22 40  1  0  0  0  0
 23 24  2  0  0  0  0
 24 25  1  0  0  0  0
 25 26  1  0  0  0  0
 25 27  2  0  0  0  0
 27 41  1  0  0  0  0
M  END
$$$$
