
 OpenBabel01122422393D

 45 48  0  0  0  0  0  0  0  0999 V2000
    4.0516    1.6368    2.8286 N   0  0  0  0  0  0  0  0  0  0  0  0
    4.8136    2.4278    2.0157 C   0  0  0  0  0  0  0  0  0  0  0  0
    5.5723    3.2687    2.4845 O   0  0  0  0  0  0  0  0  0  0  0  0
    4.7132    2.1921    0.5545 C   0  0  0  0  0  0  0  0  0  0  0  0
    3.5689    1.6408   -0.0305 C   0  0  0  0  0  0  0  0  0  0  0  0
    3.5191    1.4507   -1.4119 C   0  0  0  0  0  0  0  0  0  0  0  0
    4.6022    1.8119   -2.2117 C   0  0  0  0  0  0  0  0  0  0  0  0
    5.7578    2.3668   -1.6407 C   0  0  0  0  0  0  0  0  0  0  0  0
    6.9347    2.7994   -2.4813 C   0  0  0  0  0  0  0  0  0  0  0  0
    7.0819    1.9134   -3.5870 O   0  0  0  0  0  0  0  0  0  0  0  0
    8.3011    1.9315   -4.2004 C   0  0  0  0  0  0  0  0  0  0  0  0
    8.6189    0.7600   -4.8679 C   0  0  0  0  0  0  0  0  0  0  0  0
    9.8293    0.6567   -5.5405 C   0  0  0  0  0  0  0  0  0  0  0  0
   10.7302    1.7420   -5.6383 C   0  0  0  0  0  0  0  0  0  0  0  0
   11.8888    1.6066   -6.5479 C   0  0  0  0  0  0  0  0  0  0  0  0
   11.6803    0.8659   -7.7376 C   0  0  0  0  0  0  0  0  0  0  0  0
   12.7212    0.5124   -8.5808 C   0  0  0  0  0  0  0  0  0  0  0  0
   13.9841    0.9962   -8.3135 C   0  0  0  0  0  0  0  0  0  0  0  0
   14.9762    0.6120   -9.2137 O   0  0  0  0  0  0  0  0  0  0  0  0
   16.1385    1.3613   -9.2756 C   0  0  0  0  0  0  0  0  0  0  0  0
   16.9344    1.2133  -10.1939 O   0  0  0  0  0  0  0  0  0  0  0  0
   16.3431    2.2551   -8.2611 N   0  0  0  0  0  0  0  0  0  0  0  0
   15.5265    2.4975   -7.1884 C   0  0  0  0  0  0  0  0  0  0  0  0
   15.8494    3.2464   -6.2768 O   0  0  0  0  0  0  0  0  0  0  0  0
   14.2083    1.8521   -7.2421 C   0  0  0  0  0  0  0  0  0  0  0  0
   13.1730    2.1355   -6.3267 C   0  0  0  0  0  0  0  0  0  0  0  0
   10.4112    2.9076   -4.9307 C   0  0  0  0  0  0  0  0  0  0  0  0
    9.2002    3.0013   -4.2209 C   0  0  0  0  0  0  0  0  0  0  0  0
    5.7958    2.5641   -0.2484 C   0  0  0  0  0  0  0  0  0  0  0  0
    4.2184    1.7322    3.8212 H   0  0  0  0  0  0  0  0  0  0  0  0
    3.6334    0.7760    2.5040 H   0  0  0  0  0  0  0  0  0  0  0  0
    2.6992    1.3855    0.5671 H   0  0  0  0  0  0  0  0  0  0  0  0
    2.6276    1.0339   -1.8725 H   0  0  0  0  0  0  0  0  0  0  0  0
    4.5440    1.6623   -3.2873 H   0  0  0  0  0  0  0  0  0  0  0  0
    7.8411    2.7746   -1.8639 H   0  0  0  0  0  0  0  0  0  0  0  0
    6.7514    3.8162   -2.8446 H   0  0  0  0  0  0  0  0  0  0  0  0
    7.9277   -0.0789   -4.8719 H   0  0  0  0  0  0  0  0  0  0  0  0
   10.0493   -0.2893   -6.0288 H   0  0  0  0  0  0  0  0  0  0  0  0
   10.6813    0.5470   -8.0153 H   0  0  0  0  0  0  0  0  0  0  0  0
   12.5336   -0.1109   -9.4500 H   0  0  0  0  0  0  0  0  0  0  0  0
   17.2110    2.7744   -8.3169 H   0  0  0  0  0  0  0  0  0  0  0  0
   13.3786    2.7666   -5.4623 H   0  0  0  0  0  0  0  0  0  0  0  0
   11.0709    3.7715   -4.9506 H   0  0  0  0  0  0  0  0  0  0  0  0
    8.9682    3.9370   -3.7209 H   0  0  0  0  0  0  0  0  0  0  0  0
    6.6781    3.0064    0.2137 H   0  0  0  0  0  0  0  0  0  0  0  0
  1  2  1  0  0  0  0
  1 30  1  0  0  0  0
  1 31  1  0  0  0  0
  2  3  2  0  0  0  0
  2  4  1  0  0  0  0
  4  5  2  0  0  0  0
  4 29  1  0  0  0  0
  5  6  1  0  0  0  0
  5 32  1  0  0  0  0
  6  7  2  0  0  0  0
  6 33  1  0  0  0  0
  7  8  1  0  0  0  0
  7 34  1  0  0  0  0
  8  9  1  0  0  0  0
  8 29  2  0  0  0  0
  9 10  1  0  0  0  0
  9 35  1  0  0  0  0
  9 36  1  0  0  0  0
 10 11  1  0  0  0  0
 11 12  2  0  0  0  0
 11 28  1  0  0  0  0
 12 13  1  0  0  0  0
 12 37  1  0  0  0  0
 13 14  2  0  0  0  0
 13 38  1  0  0  0  0
 14 15  1  0  0  0  0
 14 27  1  0  0  0  0
 15 16  2  0  0  0  0
 15 26  1  0  0  0  0
 16 17  1  0  0  0  0
 16 39  1  0  0  0  0
 17 18  2  0  0  0  0
 17 40  1  0  0  0  0
 18 19  1  0  0  0  0
 18 25  1  0  0  0  0
 19 20  1  0  0  0  0
 20 21  2  0  0  0  0
 20 22  1  0  0  0  0
 22 23  1  0  0  0  0
 22 41  1  0  0  0  0
 23 24  2  0  0  0  0
 23 25  1  0  0  0  0
 25 26  2  0  0  0  0
 26 42  1  0  0  0  0
 27 28  2  0  0  0  0
 27 43  1  0  0  0  0
 28 44  1  0  0  0  0
 29 45  1  0  0  0  0
M  END
$$$$
