
 OpenBabel01122422393D

 42 45  0  0  0  0  0  0  0  0999 V2000
    1.2647   -0.2209    0.7150 O   0  0  0  0  0  0  0  0  0  0  0  0
    2.3291    0.0030    0.1507 C   0  0  0  0  0  0  0  0  0  0  0  0
    2.8256    1.2443   -0.2154 N   0  0  0  0  0  0  0  0  0  0  0  0
    2.2290    2.5029    0.0341 C   0  0  0  0  0  0  0  0  0  0  0  0
    1.1355    2.6716    0.8847 C   0  0  0  0  0  0  0  0  0  0  0  0
    0.5730    3.9348    1.1438 C   0  0  0  0  0  0  0  0  0  0  0  0
   -0.5081    4.0926    2.1419 C   0  0  0  0  0  0  0  0  0  0  0  0
   -0.5261    3.3089    3.3127 C   0  0  0  0  0  0  0  0  0  0  0  0
   -1.5072    3.4773    4.2915 C   0  0  0  0  0  0  0  0  0  0  0  0
   -2.4898    4.4458    4.1267 C   0  0  0  0  0  0  0  0  0  0  0  0
   -2.5024    5.2290    2.9762 C   0  0  0  0  0  0  0  0  0  0  0  0
   -1.5276    5.0473    1.9900 C   0  0  0  0  0  0  0  0  0  0  0  0
    1.1169    5.0381    0.4689 C   0  0  0  0  0  0  0  0  0  0  0  0
    2.2203    4.9050   -0.3884 C   0  0  0  0  0  0  0  0  0  0  0  0
    2.8110    6.1189   -1.0657 C   0  0  0  0  0  0  0  0  0  0  0  0
    2.1490    7.2762   -0.7900 F   0  0  0  0  0  0  0  0  0  0  0  0
    4.1057    6.3310   -0.7031 F   0  0  0  0  0  0  0  0  0  0  0  0
    2.8163    6.0039   -2.4221 F   0  0  0  0  0  0  0  0  0  0  0  0
    2.7814    3.6309   -0.5847 C   0  0  0  0  0  0  0  0  0  0  0  0
    3.1645   -1.1233   -0.2214 C   0  0  0  0  0  0  0  0  0  0  0  0
    2.8177   -2.4492   -0.0713 C   0  0  0  0  0  0  0  0  0  0  0  0
    1.6565   -2.9940    0.4499 N   0  0  0  0  0  0  0  0  0  0  0  0
    1.4886   -4.4146    0.4870 C   0  0  0  0  0  0  0  0  0  0  0  0
    0.4676   -4.8849    0.9452 O   0  0  0  0  0  0  0  0  0  0  0  0
    2.6264   -5.2082   -0.0630 C   0  0  0  0  0  0  0  0  0  0  0  0
    3.7298   -4.6084   -0.5444 C   0  0  0  0  0  0  0  0  0  0  0  0
    3.8504   -3.2258   -0.5570 N   0  0  0  0  0  0  0  0  0  0  0  0
    4.8704   -2.4573   -0.9936 N   0  0  0  0  0  0  0  0  0  0  0  0
    4.4548   -1.2038   -0.7882 C   0  0  0  0  0  0  0  0  0  0  0  0
    3.6722    1.2773   -0.7665 H   0  0  0  0  0  0  0  0  0  0  0  0
    0.7042    1.8165    1.3940 H   0  0  0  0  0  0  0  0  0  0  0  0
    0.2449    2.5625    3.4925 H   0  0  0  0  0  0  0  0  0  0  0  0
   -1.4909    2.8595    5.1854 H   0  0  0  0  0  0  0  0  0  0  0  0
   -3.2432    4.5921    4.8958 H   0  0  0  0  0  0  0  0  0  0  0  0
   -3.2696    5.9878    2.8454 H   0  0  0  0  0  0  0  0  0  0  0  0
   -1.5786    5.6685    1.0986 H   0  0  0  0  0  0  0  0  0  0  0  0
    0.7018    6.0321    0.6378 H   0  0  0  0  0  0  0  0  0  0  0  0
    3.6480    3.5390   -1.2381 H   0  0  0  0  0  0  0  0  0  0  0  0
    0.9202   -2.3872    0.8084 H   0  0  0  0  0  0  0  0  0  0  0  0
    2.5083   -6.2855   -0.0503 H   0  0  0  0  0  0  0  0  0  0  0  0
    4.5723   -5.1580   -0.9483 H   0  0  0  0  0  0  0  0  0  0  0  0
    5.1262   -0.4004   -1.0676 H   0  0  0  0  0  0  0  0  0  0  0  0
  1  2  2  0  0  0  0
  2  3  1  0  0  0  0
  2 20  1  0  0  0  0
  3  4  1  0  0  0  0
  3 30  1  0  0  0  0
  4  5  2  0  0  0  0
  4 19  1  0  0  0  0
  5  6  1  0  0  0  0
  5 31  1  0  0  0  0
  6  7  1  0  0  0  0
  6 13  2  0  0  0  0
  7  8  2  0  0  0  0
  7 12  1  0  0  0  0
  8  9  1  0  0  0  0
  8 32  1  0  0  0  0
  9 10  2  0  0  0  0
  9 33  1  0  0  0  0
 10 11  1  0  0  0  0
 10 34  1  0  0  0  0
 11 12  2  0  0  0  0
 11 35  1  0  0  0  0
 12 36  1  0  0  0  0
 13 14  1  0  0  0  0
 13 37  1  0  0  0  0
 14 15  1  0  0  0  0
 14 19  2  0  0  0  0
 15 16  1  0  0  0  0
 15 17  1  0  0  0  0
 15 18  1  0  0  0  0
 19 38  1  0  0  0  0
 20 21  2  0  0  0  0
 20 29  1  0  0  0  0
 21 22  1  0  0  0  0
 21 27  1  0  0  0  0
 22 23  1  0  0  0  0
 22 39  1  0  0  0  0
 23 24  2  0  0  0  0
 23 25  1  0  0  0  0
 25 26  2  0  0  0  0
 25 40  1  0  0  0  0
 26 27  1  0  0  0  0
 26 41  1  0  0  0  0
 27 28  1  0  0  0  0
 28 29  2  0  0  0  0
 29 42  1  0  0  0  0
M  END
$$$$
