
 OpenBabel01122422393D

 49 52  0  0  1  0  0  0  0  0999 V2000
    3.6499    1.4048    1.5012 C   0  0  0  0  0  0  0  0  0  0  0  0
    2.8338    0.2643    1.0927 N   0  0  0  0  0  0  0  0  0  0  0  0
    1.4931    0.4037    0.7795 C   0  0  0  0  0  0  0  0  0  0  0  0
    0.6898   -0.5616    0.3334 C   0  0  0  0  0  0  0  0  0  0  0  0
    1.2589   -1.9041    0.1343 C   0  0  0  0  0  0  0  0  0  0  0  0
    0.5607   -2.8077   -0.3134 O   0  0  0  0  0  0  0  0  0  0  0  0
    2.6881   -2.0992    0.4923 C   0  0  0  0  0  0  0  0  0  0  0  0
    3.2467   -3.3783    0.3357 C   0  0  0  0  0  0  0  0  0  0  0  0
    4.5756   -3.6160    0.6719 C   0  0  0  0  0  0  0  0  0  0  0  0
    5.1927   -4.8812    0.5206 N   0  0  0  0  0  0  0  0  0  0  0  0
    4.5343   -6.0802    0.3290 C   0  0  0  0  0  0  0  0  0  0  0  0
    3.3258   -6.2653    0.4158 O   0  0  0  0  0  0  0  0  0  0  0  0
    5.4105   -7.1078    0.0573 N   0  0  0  0  0  0  0  0  0  0  0  0
    4.8946   -8.4423   -0.2348 C   0  0  3  0  0  0  0  0  0  0  0  0
    4.6354   -8.5790   -1.7389 C   0  0  0  0  0  0  0  0  0  0  0  0
    5.6336   -8.9996   -2.6320 C   0  0  0  0  0  0  0  0  0  0  0  0
    5.3052   -9.1965   -3.9642 C   0  0  0  0  0  0  0  0  0  0  0  0
    4.0781   -8.9719   -4.4749 N   0  0  0  0  0  0  0  0  0  0  0  0
    3.1392   -8.5232   -3.6145 C   0  0  0  0  0  0  0  0  0  0  0  0
    3.3637   -8.3140   -2.2621 C   0  0  0  0  0  0  0  0  0  0  0  0
    5.8090   -9.5536    0.3029 C   0  0  0  0  0  0  0  0  0  0  0  0
    6.9694   -9.2863    1.0498 C   0  0  0  0  0  0  0  0  0  0  0  0
    7.8383  -10.3229    1.4097 C   0  0  0  0  0  0  0  0  0  0  0  0
    7.5415  -11.6270    1.0377 C   0  0  0  0  0  0  0  0  0  0  0  0
    8.4022  -12.6081    1.3380 F   0  0  0  0  0  0  0  0  0  0  0  0
    6.3698  -11.9291    0.3605 C   0  0  0  0  0  0  0  0  0  0  0  0
    5.4955  -10.8993    0.0134 C   0  0  0  0  0  0  0  0  0  0  0  0
    5.3411   -2.5515    1.1500 C   0  0  0  0  0  0  0  0  0  0  0  0
    4.7824   -1.2669    1.3018 C   0  0  0  0  0  0  0  0  0  0  0  0
    3.4433   -1.0080    0.9690 C   0  0  0  0  0  0  0  0  0  0  0  0
    3.0627    2.3319    1.5231 H   0  0  0  0  0  0  0  0  0  0  0  0
    4.4737    1.5697    0.7960 H   0  0  0  0  0  0  0  0  0  0  0  0
    4.0534    1.2599    2.5098 H   0  0  0  0  0  0  0  0  0  0  0  0
    1.0965    1.4078    0.9240 H   0  0  0  0  0  0  0  0  0  0  0  0
   -0.3575   -0.4162    0.0984 H   0  0  0  0  0  0  0  0  0  0  0  0
    2.6133   -4.1647   -0.0657 H   0  0  0  0  0  0  0  0  0  0  0  0
    6.1722   -4.9476    0.7514 H   0  0  0  0  0  0  0  0  0  0  0  0
    6.2674   -6.8550   -0.4076 H   0  0  0  0  0  0  0  0  0  0  0  0
    3.9419   -8.5703    0.2965 H   0  0  0  0  0  0  0  0  0  0  0  0
    6.6423   -9.2203   -2.2975 H   0  0  0  0  0  0  0  0  0  0  0  0
    6.0417   -9.5652   -4.6723 H   0  0  0  0  0  0  0  0  0  0  0  0
    2.1609   -8.3410   -4.0535 H   0  0  0  0  0  0  0  0  0  0  0  0
    2.5552   -7.9601   -1.6297 H   0  0  0  0  0  0  0  0  0  0  0  0
    7.2221   -8.2733    1.3513 H   0  0  0  0  0  0  0  0  0  0  0  0
    8.7482  -10.1136    1.9583 H   0  0  0  0  0  0  0  0  0  0  0  0
    6.1501  -12.9564    0.0888 H   0  0  0  0  0  0  0  0  0  0  0  0
    4.5841  -11.1470   -0.5299 H   0  0  0  0  0  0  0  0  0  0  0  0
    6.3817   -2.6942    1.4306 H   0  0  0  0  0  0  0  0  0  0  0  0
    5.4254   -0.4818    1.6903 H   0  0  0  0  0  0  0  0  0  0  0  0
  1  2  1  0  0  0  0
  1 31  1  0  0  0  0
  1 32  1  0  0  0  0
  1 33  1  0  0  0  0
  2  3  1  0  0  0  0
  2 30  1  0  0  0  0
  3  4  2  0  0  0  0
  3 34  1  0  0  0  0
  4  5  1  0  0  0  0
  4 35  1  0  0  0  0
  5  6  2  0  0  0  0
  5  7  1  0  0  0  0
  7  8  2  0  0  0  0
  7 30  1  0  0  0  0
  8  9  1  0  0  0  0
  8 36  1  0  0  0  0
  9 10  1  0  0  0  0
  9 28  2  0  0  0  0
 10 11  1  0  0  0  0
 10 37  1  0  0  0  0
 11 12  2  0  0  0  0
 11 13  1  0  0  0  0
 13 14  1  0  0  0  0
 13 38  1  0  0  0  0
 14 15  1  0  0  0  0
 14 21  1  0  0  0  0
 14 39  1  0  0  0  0
 15 16  2  0  0  0  0
 15 20  1  0  0  0  0
 16 17  1  0  0  0  0
 16 40  1  0  0  0  0
 17 18  2  0  0  0  0
 17 41  1  0  0  0  0
 18 19  1  0  0  0  0
 19 20  2  0  0  0  0
 19 42  1  0  0  0  0
 20 43  1  0  0  0  0
 21 22  2  0  0  0  0
 21 27  1  0  0  0  0
 22 23  1  0  0  0  0
 22 44  1  0  0  0  0
 23 24  2  0  0  0  0
 23 45  1  0  0  0  0
 24 25  1  0  0  0  0
 24 26  1  0  0  0  0
 26 27  2  0  0  0  0
 26 46  1  0  0  0  0
 27 47  1  0  0  0  0
 28 29  1  0  0  0  0
 28 48  1  0  0  0  0
 29 30  2  0  0  0  0
 29 49  1  0  0  0  0
M  END
$$$$
