
 OpenBabel01122422393D

 47 50  0  0  0  0  0  0  0  0999 V2000
    1.0226   -0.0643   -0.0357 O   0  0  0  0  0  0  0  0  0  0  0  0
    2.2493   -0.0354    0.0078 C   0  0  0  0  0  0  0  0  0  0  0  0
    2.9897   -1.0675    0.5552 N   0  0  0  0  0  0  0  0  0  0  0  0
    2.3440   -2.2098    1.1745 C   0  0  0  0  0  0  0  0  0  0  0  0
    3.3466   -3.2198    1.7279 C   0  0  0  0  0  0  0  0  0  0  0  0
    2.6936   -4.4390    2.3358 C   0  0  0  0  0  0  0  0  0  0  0  0
    2.3822   -5.5474    1.5378 C   0  0  0  0  0  0  0  0  0  0  0  0
    1.8280   -6.7043    2.0993 C   0  0  0  0  0  0  0  0  0  0  0  0
    1.5643   -6.7643    3.4735 C   0  0  0  0  0  0  0  0  0  0  0  0
    1.0310   -7.9428    4.0718 N   0  0  0  0  0  0  0  0  0  0  0  0
    0.7595   -9.1555    3.4680 C   0  0  0  0  0  0  0  0  0  0  0  0
    0.2509   -9.9894    4.4350 C   0  0  0  0  0  0  0  0  0  0  0  0
    0.2542   -9.2150    5.6011 C   0  0  0  0  0  0  0  0  0  0  0  0
    0.7305   -7.9857    5.3983 N   0  0  0  0  0  0  0  0  0  0  0  0
    1.8397   -5.6436    4.2703 C   0  0  0  0  0  0  0  0  0  0  0  0
    2.3993   -4.4911    3.7042 C   0  0  0  0  0  0  0  0  0  0  0  0
    3.0594    1.0914   -0.4909 C   0  0  0  0  0  0  0  0  0  0  0  0
    4.4105    1.1114   -0.4041 N   0  0  0  0  0  0  0  0  0  0  0  0
    4.7854    2.3265   -0.9133 N   0  0  0  0  0  0  0  0  0  0  0  0
    6.1583    2.7104   -0.9316 C   0  0  0  0  0  0  0  0  0  0  0  0
    7.1356    1.8084   -0.4732 C   0  0  0  0  0  0  0  0  0  0  0  0
    8.4860    2.1705   -0.4737 C   0  0  0  0  0  0  0  0  0  0  0  0
    8.8629    3.4298   -0.9281 C   0  0  0  0  0  0  0  0  0  0  0  0
   10.1564    3.7758   -0.9234 F   0  0  0  0  0  0  0  0  0  0  0  0
    7.9165    4.3323   -1.3838 C   0  0  0  0  0  0  0  0  0  0  0  0
    6.5708    3.9708   -1.3855 C   0  0  0  0  0  0  0  0  0  0  0  0
    5.7025    4.8892   -1.8288 F   0  0  0  0  0  0  0  0  0  0  0  0
    3.6970    3.0442   -1.3530 C   0  0  0  0  0  0  0  0  0  0  0  0
    2.5960    2.2794   -1.0941 C   0  0  0  0  0  0  0  0  0  0  0  0
    1.3401    2.6543   -1.3741 O   0  0  0  0  0  0  0  0  0  0  0  0
    3.9965   -0.9373    0.5698 H   0  0  0  0  0  0  0  0  0  0  0  0
    1.6951   -2.6737    0.4219 H   0  0  0  0  0  0  0  0  0  0  0  0
    1.6920   -1.8337    1.9722 H   0  0  0  0  0  0  0  0  0  0  0  0
    3.9857   -2.7366    2.4783 H   0  0  0  0  0  0  0  0  0  0  0  0
    4.0293   -3.5408    0.9303 H   0  0  0  0  0  0  0  0  0  0  0  0
    2.5817   -5.5248    0.4681 H   0  0  0  0  0  0  0  0  0  0  0  0
    1.6171   -7.5357    1.4341 H   0  0  0  0  0  0  0  0  0  0  0  0
    0.9495   -9.3315    2.4212 H   0  0  0  0  0  0  0  0  0  0  0  0
   -0.0710  -11.0142    4.3111 H   0  0  0  0  0  0  0  0  0  0  0  0
   -0.0683   -9.4952    6.5959 H   0  0  0  0  0  0  0  0  0  0  0  0
    1.6368   -5.6566    5.3404 H   0  0  0  0  0  0  0  0  0  0  0  0
    2.6155   -3.6412    4.3484 H   0  0  0  0  0  0  0  0  0  0  0  0
    6.8630    0.8179   -0.1130 H   0  0  0  0  0  0  0  0  0  0  0  0
    9.2470    1.4803   -0.1213 H   0  0  0  0  0  0  0  0  0  0  0  0
    8.2190    5.3140   -1.7330 H   0  0  0  0  0  0  0  0  0  0  0  0
    3.7817    4.0216   -1.7986 H   0  0  0  0  0  0  0  0  0  0  0  0
    1.3203    3.5328   -1.7896 H   0  0  0  0  0  0  0  0  0  0  0  0
  1  2  2  0  0  0  0
  2  3  1  0  0  0  0
  2 17  1  0  0  0  0
  3  4  1  0  0  0  0
  3 31  1  0  0  0  0
  4  5  1  0  0  0  0
  4 32  1  0  0  0  0
  4 33  1  0  0  0  0
  5  6  1  0  0  0  0
  5 34  1  0  0  0  0
  5 35  1  0  0  0  0
  6  7  2  0  0  0  0
  6 16  1  0  0  0  0
  7  8  1  0  0  0  0
  7 36  1  0  0  0  0
  8  9  2  0  0  0  0
  8 37  1  0  0  0  0
  9 10  1  0  0  0  0
  9 15  1  0  0  0  0
 10 11  1  0  0  0  0
 10 14  1  0  0  0  0
 11 12  2  0  0  0  0
 11 38  1  0  0  0  0
 12 13  1  0  0  0  0
 12 39  1  0  0  0  0
 13 14  2  0  0  0  0
 13 40  1  0  0  0  0
 15 16  2  0  0  0  0
 15 41  1  0  0  0  0
 16 42  1  0  0  0  0
 17 18  2  0  0  0  0
 17 29  1  0  0  0  0
 18 19  1  0  0  0  0
 19 20  1  0  0  0  0
 19 28  1  0  0  0  0
 20 21  2  0  0  0  0
 20 26  1  0  0  0  0
 21 22  1  0  0  0  0
 21 43  1  0  0  0  0
 22 23  2  0  0  0  0
 22 44  1  0  0  0  0
 23 24  1  0  0  0  0
 23 25  1  0  0  0  0
 25 26  2  0  0  0  0
 25 45  1  0  0  0  0
 26 27  1  0  0  0  0
 28 29  2  0  0  0  0
 28 46  1  0  0  0  0
 29 30  1  0  0  0  0
 30 47  1  0  0  0  0
M  END
$$$$
