
 OpenBabel01122422393D

 49 52  0  0  0  0  0  0  0  0999 V2000
    0.8600    0.0980   -0.0712 C   0  0  0  0  0  0  0  0  0  0  0  0
    2.2368   -0.2534   -0.0233 O   0  0  0  0  0  0  0  0  0  0  0  0
    2.9292   -0.2681   -1.2073 C   0  0  0  0  0  0  0  0  0  0  0  0
    2.6072    0.5605   -2.2881 C   0  0  0  0  0  0  0  0  0  0  0  0
    3.3959    0.5591   -3.4380 C   0  0  0  0  0  0  0  0  0  0  0  0
    4.5595   -0.2036   -3.4800 C   0  0  0  0  0  0  0  0  0  0  0  0
    4.9312   -1.0000   -2.3912 C   0  0  0  0  0  0  0  0  0  0  0  0
    6.1605   -1.5917   -2.5572 O   0  0  0  0  0  0  0  0  0  0  0  0
    6.9545   -1.7816   -1.3815 C   0  0  0  0  0  0  0  0  0  0  0  0
    8.3053   -1.1300   -1.5151 C   0  0  0  0  0  0  0  0  0  0  0  0
    8.6857   -0.1208   -0.6140 C   0  0  0  0  0  0  0  0  0  0  0  0
    9.9622    0.4317   -0.6734 C   0  0  0  0  0  0  0  0  0  0  0  0
   10.8664   -0.0125   -1.6336 C   0  0  0  0  0  0  0  0  0  0  0  0
   10.4950   -1.0095   -2.5372 C   0  0  0  0  0  0  0  0  0  0  0  0
    9.2184   -1.5659   -2.4801 C   0  0  0  0  0  0  0  0  0  0  0  0
    4.0610   -1.1096   -1.2856 C   0  0  0  0  0  0  0  0  0  0  0  0
    4.2620   -2.2080   -0.2902 C   0  0  0  0  0  0  0  0  0  0  0  0
    4.7259   -3.2819   -0.6768 O   0  0  0  0  0  0  0  0  0  0  0  0
    3.9048   -1.9694    1.0159 N   0  0  0  0  0  0  0  0  0  0  0  0
    4.1326   -2.8355    2.0657 C   0  0  0  0  0  0  0  0  0  0  0  0
    5.1802   -3.6613    2.1791 C   0  0  0  0  0  0  0  0  0  0  0  0
    5.4156   -4.5131    3.2217 N   0  0  0  0  0  0  0  0  0  0  0  0
    4.5295   -4.5444    4.1684 C   0  0  0  0  0  0  0  0  0  0  0  0
    4.7418   -5.4801    5.3065 C   0  0  0  0  0  0  0  0  0  0  0  0
    3.8405   -5.5442    6.2939 C   0  0  0  0  0  0  0  0  0  0  0  0
    2.6677   -4.7154    6.2618 C   0  0  0  0  0  0  0  0  0  0  0  0
    2.4743   -3.8645    5.2458 C   0  0  0  0  0  0  0  0  0  0  0  0
    3.3831   -3.7572    4.1989 N   0  0  0  0  0  0  0  0  0  0  0  0
    3.1334   -2.8529    3.1733 C   0  0  0  0  0  0  0  0  0  0  0  0
    2.1536   -2.1046    3.1072 O   0  0  0  0  0  0  0  0  0  0  0  0
    0.4694    0.0212    0.9482 H   0  0  0  0  0  0  0  0  0  0  0  0
    0.3099   -0.6061   -0.7020 H   0  0  0  0  0  0  0  0  0  0  0  0
    0.7094    1.1309   -0.3968 H   0  0  0  0  0  0  0  0  0  0  0  0
    1.7499    1.2260   -2.2677 H   0  0  0  0  0  0  0  0  0  0  0  0
    3.1242    1.1789   -4.2896 H   0  0  0  0  0  0  0  0  0  0  0  0
    5.1956   -0.1679   -4.3625 H   0  0  0  0  0  0  0  0  0  0  0  0
    7.1043   -2.8569   -1.2319 H   0  0  0  0  0  0  0  0  0  0  0  0
    6.4963   -1.3704   -0.4779 H   0  0  0  0  0  0  0  0  0  0  0  0
    7.9936    0.2266    0.1504 H   0  0  0  0  0  0  0  0  0  0  0  0
   10.2527    1.2010    0.0384 H   0  0  0  0  0  0  0  0  0  0  0  0
   11.8646    0.4142   -1.6780 H   0  0  0  0  0  0  0  0  0  0  0  0
   11.2049   -1.3609   -3.2803 H   0  0  0  0  0  0  0  0  0  0  0  0
    8.9380   -2.3526   -3.1767 H   0  0  0  0  0  0  0  0  0  0  0  0
    3.1877   -1.2587    1.1712 H   0  0  0  0  0  0  0  0  0  0  0  0
    5.9532   -3.6737    1.4142 H   0  0  0  0  0  0  0  0  0  0  0  0
    5.6371   -6.0895    5.2873 H   0  0  0  0  0  0  0  0  0  0  0  0
    3.9772   -6.2222    7.1300 H   0  0  0  0  0  0  0  0  0  0  0  0
    1.9496   -4.7918    7.0729 H   0  0  0  0  0  0  0  0  0  0  0  0
    1.5934   -3.2292    5.2017 H   0  0  0  0  0  0  0  0  0  0  0  0
  1  2  1  0  0  0  0
  1 31  1  0  0  0  0
  1 32  1  0  0  0  0
  1 33  1  0  0  0  0
  2  3  1  0  0  0  0
  3  4  2  0  0  0  0
  3 16  1  0  0  0  0
  4  5  1  0  0  0  0
  4 34  1  0  0  0  0
  5  6  2  0  0  0  0
  5 35  1  0  0  0  0
  6  7  1  0  0  0  0
  6 36  1  0  0  0  0
  7  8  1  0  0  0  0
  7 16  2  0  0  0  0
  8  9  1  0  0  0  0
  9 10  1  0  0  0  0
  9 37  1  0  0  0  0
  9 38  1  0  0  0  0
 10 11  2  0  0  0  0
 10 15  1  0  0  0  0
 11 12  1  0  0  0  0
 11 39  1  0  0  0  0
 12 13  2  0  0  0  0
 12 40  1  0  0  0  0
 13 14  1  0  0  0  0
 13 41  1  0  0  0  0
 14 15  2  0  0  0  0
 14 42  1  0  0  0  0
 15 43  1  0  0  0  0
 16 17  1  0  0  0  0
 17 18  2  0  0  0  0
 17 19  1  0  0  0  0
 19 20  1  0  0  0  0
 19 44  1  0  0  0  0
 20 21  2  0  0  0  0
 20 29  1  0  0  0  0
 21 22  1  0  0  0  0
 21 45  1  0  0  0  0
 22 23  2  0  0  0  0
 23 24  1  0  0  0  0
 23 28  1  0  0  0  0
 24 25  2  0  0  0  0
 24 46  1  0  0  0  0
 25 26  1  0  0  0  0
 25 47  1  0  0  0  0
 26 27  2  0  0  0  0
 26 48  1  0  0  0  0
 27 28  1  0  0  0  0
 27 49  1  0  0  0  0
 28 29  1  0  0  0  0
 29 30  2  0  0  0  0
M  END
$$$$
