
 OpenBabel01122422353D

 47 50  0  0  1  0  0  0  0  0999 V2000
    5.6869    1.0494    3.1380 O   0  0  0  0  0  0  0  0  0  0  0  0
    6.6484    0.6528    2.5112 C   0  0  0  0  0  0  0  0  0  0  0  0
    7.4558   -0.3382    2.9280 O   0  0  0  0  0  0  0  0  0  0  0  0
    7.0654    1.2551    1.2305 C   0  0  0  0  0  0  0  0  0  0  0  0
    6.8661    2.6067    1.0240 C   0  0  0  0  0  0  0  0  0  0  0  0
    7.2504    3.2581   -0.1018 N   0  0  0  0  0  0  0  0  0  0  0  0
    7.8026    2.5632   -1.0999 C   0  0  0  0  0  0  0  0  0  0  0  0
    8.1653    3.2182   -2.2013 N   0  0  0  0  0  0  0  0  0  0  0  0
    8.5824    2.5101   -3.2682 C   0  0  0  0  0  0  0  0  0  0  0  0
    8.8453    3.2737   -4.4056 N   0  0  0  0  0  0  0  0  0  0  0  0
    8.5854    2.8578   -5.7001 C   0  0  0  0  0  0  0  0  0  0  0  0
    8.0448    1.7871   -5.9563 O   0  0  0  0  0  0  0  0  0  0  0  0
    9.0319    3.7767   -6.8054 C   0  0  0  0  0  0  0  0  0  0  0  0
    9.2668    5.1384   -6.5183 C   0  0  0  0  0  0  0  0  0  0  0  0
    9.8820    5.9800   -7.4449 C   0  0  0  0  0  0  0  0  0  0  0  0
   10.2577    5.4832   -8.6829 C   0  0  0  0  0  0  0  0  0  0  0  0
    9.9486    4.1674   -9.0223 C   0  0  0  0  0  0  0  0  0  0  0  0
    9.3028    3.2973   -8.1128 C   0  0  0  0  0  0  0  0  0  0  0  0
    8.9178    1.9163   -8.6448 C   0  0  3  0  0  0  0  0  0  0  0  0
    9.4945    0.9165   -7.8057 O   0  0  0  0  0  0  0  0  0  0  0  0
    7.4260    1.6888   -8.9101 C   0  0  0  0  0  0  0  0  0  0  0  0
    6.5697    2.7361   -9.2949 C   0  0  0  0  0  0  0  0  0  0  0  0
    5.2135    2.5032   -9.5497 C   0  0  0  0  0  0  0  0  0  0  0  0
    4.6913    1.2167   -9.4455 C   0  0  0  0  0  0  0  0  0  0  0  0
    5.5290    0.1585   -9.1095 C   0  0  0  0  0  0  0  0  0  0  0  0
    6.8841    0.3909   -8.8546 C   0  0  0  0  0  0  0  0  0  0  0  0
    8.7884    1.1411   -3.2436 C   0  0  0  0  0  0  0  0  0  0  0  0
    8.5066    0.4607   -2.0719 C   0  0  0  0  0  0  0  0  0  0  0  0
    7.9809    1.1677   -0.9890 C   0  0  0  0  0  0  0  0  0  0  0  0
    7.6188    0.5133    0.1949 C   0  0  0  0  0  0  0  0  0  0  0  0
    8.2974   -0.4452    2.4432 H   0  0  0  0  0  0  0  0  0  0  0  0
    6.3855    3.2313    1.7743 H   0  0  0  0  0  0  0  0  0  0  0  0
    8.9792    4.2473   -4.1865 H   0  0  0  0  0  0  0  0  0  0  0  0
    8.9757    5.5861   -5.5732 H   0  0  0  0  0  0  0  0  0  0  0  0
   10.0814    7.0178   -7.1884 H   0  0  0  0  0  0  0  0  0  0  0  0
   10.7731    6.1234   -9.3941 H   0  0  0  0  0  0  0  0  0  0  0  0
   10.2217    3.8141  -10.0161 H   0  0  0  0  0  0  0  0  0  0  0  0
    9.4046    1.7715   -9.6177 H   0  0  0  0  0  0  0  0  0  0  0  0
    8.8555    0.8313   -7.0651 H   0  0  0  0  0  0  0  0  0  0  0  0
    6.9430    3.7520   -9.4005 H   0  0  0  0  0  0  0  0  0  0  0  0
    4.5640    3.3299   -9.8277 H   0  0  0  0  0  0  0  0  0  0  0  0
    3.6351    1.0398   -9.6316 H   0  0  0  0  0  0  0  0  0  0  0  0
    5.1291   -0.8496   -9.0392 H   0  0  0  0  0  0  0  0  0  0  0  0
    7.5191   -0.4572   -8.6049 H   0  0  0  0  0  0  0  0  0  0  0  0
    9.1910    0.6118   -4.1005 H   0  0  0  0  0  0  0  0  0  0  0  0
    8.6780   -0.6104   -2.0229 H   0  0  0  0  0  0  0  0  0  0  0  0
    7.7295   -0.5641    0.2780 H   0  0  0  0  0  0  0  0  0  0  0  0
  1  2  2  0  0  0  0
  2  3  1  0  0  0  0
  2  4  1  0  0  0  0
  3 31  1  0  0  0  0
  4  5  2  0  0  0  0
  4 30  1  0  0  0  0
  5  6  1  0  0  0  0
  5 32  1  0  0  0  0
  6  7  2  0  0  0  0
  7  8  1  0  0  0  0
  7 29  1  0  0  0  0
  8  9  2  0  0  0  0
  9 10  1  0  0  0  0
  9 27  1  0  0  0  0
 10 11  1  0  0  0  0
 10 33  1  0  0  0  0
 11 12  2  0  0  0  0
 11 13  1  0  0  0  0
 13 14  2  0  0  0  0
 13 18  1  0  0  0  0
 14 15  1  0  0  0  0
 14 34  1  0  0  0  0
 15 16  2  0  0  0  0
 15 35  1  0  0  0  0
 16 17  1  0  0  0  0
 16 36  1  0  0  0  0
 17 18  2  0  0  0  0
 17 37  1  0  0  0  0
 18 19  1  0  0  0  0
 19 20  1  0  0  0  0
 19 21  1  0  0  0  0
 19 38  1  0  0  0  0
 20 39  1  0  0  0  0
 21 22  2  0  0  0  0
 21 26  1  0  0  0  0
 22 23  1  0  0  0  0
 22 40  1  0  0  0  0
 23 24  2  0  0  0  0
 23 41  1  0  0  0  0
 24 25  1  0  0  0  0
 24 42  1  0  0  0  0
 25 26  2  0  0  0  0
 25 43  1  0  0  0  0
 26 44  1  0  0  0  0
 27 28  2  0  0  0  0
 27 45  1  0  0  0  0
 28 29  1  0  0  0  0
 28 46  1  0  0  0  0
 29 30  2  0  0  0  0
 30 47  1  0  0  0  0
M  END
$$$$
