
 OpenBabel01122422393D

 48 51  0  0  0  0  0  0  0  0999 V2000
    0.5098   -0.8332   -0.0755 O   0  0  0  0  0  0  0  0  0  0  0  0
    1.7034   -0.9868    0.1354 C   0  0  0  0  0  0  0  0  0  0  0  0
    2.2333   -1.0260    1.3761 O   0  0  0  0  0  0  0  0  0  0  0  0
    2.7050   -1.0886   -0.9526 C   0  0  0  0  0  0  0  0  0  0  0  0
    2.4636   -0.3964   -2.1419 C   0  0  0  0  0  0  0  0  0  0  0  0
    3.3860   -0.4692   -3.1795 C   0  0  0  0  0  0  0  0  0  0  0  0
    4.5586   -1.2126   -3.0182 C   0  0  0  0  0  0  0  0  0  0  0  0
    4.8484   -1.8916   -1.8178 C   0  0  0  0  0  0  0  0  0  0  0  0
    6.1713   -2.5239   -1.5840 C   0  0  0  0  0  0  0  0  0  0  0  0
    7.3305   -1.9589   -2.1471 C   0  0  0  0  0  0  0  0  0  0  0  0
    8.6025   -2.4598   -1.8653 C   0  0  0  0  0  0  0  0  0  0  0  0
    8.7518   -3.5247   -0.9850 C   0  0  0  0  0  0  0  0  0  0  0  0
    7.6284   -4.1113   -0.3911 C   0  0  0  0  0  0  0  0  0  0  0  0
    7.7989   -5.1621    0.6764 C   0  0  0  0  0  0  0  0  0  0  0  0
    7.0992   -6.3819    0.3759 N   0  0  0  0  0  0  0  0  0  0  0  0
    6.6474   -7.2059    1.3906 C   0  0  0  0  0  0  0  0  0  0  0  0
    6.7813   -6.9181    2.5786 O   0  0  0  0  0  0  0  0  0  0  0  0
    5.9730   -8.4376    0.9279 C   0  0  0  0  0  0  0  0  0  0  0  0
    5.8420   -8.7730   -0.3735 N   0  0  0  0  0  0  0  0  0  0  0  0
    5.0860   -9.9042   -0.3105 N   0  0  0  0  0  0  0  0  0  0  0  0
    4.6461  -10.5944   -1.4709 C   0  0  0  0  0  0  0  0  0  0  0  0
    5.0224  -10.1354   -2.7416 C   0  0  0  0  0  0  0  0  0  0  0  0
    4.5852  -10.8088   -3.8853 C   0  0  0  0  0  0  0  0  0  0  0  0
    3.7702  -11.9336   -3.7708 C   0  0  0  0  0  0  0  0  0  0  0  0
    3.3890  -12.3916   -2.5123 C   0  0  0  0  0  0  0  0  0  0  0  0
    3.8245  -11.7281   -1.3631 C   0  0  0  0  0  0  0  0  0  0  0  0
    4.8364  -10.2133    1.0015 C   0  0  0  0  0  0  0  0  0  0  0  0
    5.3812   -9.3254    1.7970 N   0  0  0  0  0  0  0  0  0  0  0  0
    6.3483   -3.6217   -0.7193 C   0  0  0  0  0  0  0  0  0  0  0  0
    3.8714   -1.8544   -0.8068 C   0  0  0  0  0  0  0  0  0  0  0  0
    3.2065   -0.9725    1.4159 H   0  0  0  0  0  0  0  0  0  0  0  0
    1.5613    0.2012   -2.2584 H   0  0  0  0  0  0  0  0  0  0  0  0
    3.2064    0.0672   -4.1086 H   0  0  0  0  0  0  0  0  0  0  0  0
    5.2595   -1.2410   -3.8509 H   0  0  0  0  0  0  0  0  0  0  0  0
    7.2662   -1.0825   -2.7876 H   0  0  0  0  0  0  0  0  0  0  0  0
    9.4762   -1.9862   -2.3061 H   0  0  0  0  0  0  0  0  0  0  0  0
    9.7533   -3.8702   -0.7408 H   0  0  0  0  0  0  0  0  0  0  0  0
    7.4441   -4.7489    1.6285 H   0  0  0  0  0  0  0  0  0  0  0  0
    8.8556   -5.4183    0.8137 H   0  0  0  0  0  0  0  0  0  0  0  0
    7.0745   -6.7527   -0.5683 H   0  0  0  0  0  0  0  0  0  0  0  0
    5.6533   -9.2575   -2.8590 H   0  0  0  0  0  0  0  0  0  0  0  0
    4.8803  -10.4529   -4.8711 H   0  0  0  0  0  0  0  0  0  0  0  0
    3.4299  -12.4536   -4.6633 H   0  0  0  0  0  0  0  0  0  0  0  0
    2.7475  -13.2662   -2.4241 H   0  0  0  0  0  0  0  0  0  0  0  0
    3.4966  -12.1225   -0.4061 H   0  0  0  0  0  0  0  0  0  0  0  0
    4.2615  -11.0668    1.3243 H   0  0  0  0  0  0  0  0  0  0  0  0
    5.4859   -4.0963   -0.2528 H   0  0  0  0  0  0  0  0  0  0  0  0
    4.0294   -2.4124    0.1119 H   0  0  0  0  0  0  0  0  0  0  0  0
  1  2  2  0  0  0  0
  2  3  1  0  0  0  0
  2  4  1  0  0  0  0
  3 31  1  0  0  0  0
  4  5  2  0  0  0  0
  4 30  1  0  0  0  0
  5  6  1  0  0  0  0
  5 32  1  0  0  0  0
  6  7  2  0  0  0  0
  6 33  1  0  0  0  0
  7  8  1  0  0  0  0
  7 34  1  0  0  0  0
  8  9  1  0  0  0  0
  8 30  2  0  0  0  0
  9 10  2  0  0  0  0
  9 29  1  0  0  0  0
 10 11  1  0  0  0  0
 10 35  1  0  0  0  0
 11 12  2  0  0  0  0
 11 36  1  0  0  0  0
 12 13  1  0  0  0  0
 12 37  1  0  0  0  0
 13 14  1  0  0  0  0
 13 29  2  0  0  0  0
 14 15  1  0  0  0  0
 14 38  1  0  0  0  0
 14 39  1  0  0  0  0
 15 16  1  0  0  0  0
 15 40  1  0  0  0  0
 16 17  2  0  0  0  0
 16 18  1  0  0  0  0
 18 19  2  0  0  0  0
 18 28  1  0  0  0  0
 19 20  1  0  0  0  0
 20 21  1  0  0  0  0
 20 27  1  0  0  0  0
 21 22  2  0  0  0  0
 21 26  1  0  0  0  0
 22 23  1  0  0  0  0
 22 41  1  0  0  0  0
 23 24  2  0  0  0  0
 23 42  1  0  0  0  0
 24 25  1  0  0  0  0
 24 43  1  0  0  0  0
 25 26  2  0  0  0  0
 25 44  1  0  0  0  0
 26 45  1  0  0  0  0
 27 28  2  0  0  0  0
 27 46  1  0  0  0  0
 29 47  1  0  0  0  0
 30 48  1  0  0  0  0
M  END
$$$$
