
 OpenBabel01122422393D

 47 50  0  0  1  0  0  0  0  0999 V2000
    2.8775    1.9782   -1.2092 O   0  0  0  0  0  0  0  0  0  0  0  0
    3.1190    0.9842   -0.5383 C   0  0  0  0  0  0  0  0  0  0  0  0
    2.7422    0.8520    0.7862 N   0  0  0  0  0  0  0  0  0  0  0  0
    2.1486    2.0059    1.4936 C   0  0  3  0  0  0  0  0  0  0  0  0
    1.1843    1.5030    2.5879 C   0  0  0  0  0  0  0  0  0  0  0  0
    0.8059    2.1355    3.5607 O   0  0  0  0  0  0  0  0  0  0  0  0
    0.6861    0.2656    2.3027 O   0  0  0  0  0  0  0  0  0  0  0  0
    3.2250    2.9425    2.0031 C   0  0  0  0  0  0  0  0  0  0  0  0
    4.1136    2.5633    3.0160 C   0  0  0  0  0  0  0  0  0  0  0  0
    5.1161    3.4380    3.4288 C   0  0  0  0  0  0  0  0  0  0  0  0
    5.2493    4.6910    2.8248 C   0  0  0  0  0  0  0  0  0  0  0  0
    4.3972    5.1002    1.7850 C   0  0  0  0  0  0  0  0  0  0  0  0
    4.6115    6.3821    1.0787 C   0  0  0  0  0  0  0  0  0  0  0  0
    5.9051    6.8379    0.7913 C   0  0  0  0  0  0  0  0  0  0  0  0
    6.0809    8.0220    0.0912 C   0  0  0  0  0  0  0  0  0  0  0  0
    5.0641    8.7882   -0.3485 N   0  0  0  0  0  0  0  0  0  0  0  0
    3.8203    8.3486   -0.0734 C   0  0  0  0  0  0  0  0  0  0  0  0
    3.5463    7.1789    0.6266 C   0  0  0  0  0  0  0  0  0  0  0  0
    3.3769    4.2101    1.4043 C   0  0  0  0  0  0  0  0  0  0  0  0
    3.8541   -0.1503   -1.1423 C   0  0  0  0  0  0  0  0  0  0  0  0
    4.7820    0.0743   -2.1620 C   0  0  0  0  0  0  0  0  0  0  0  0
    5.4230   -1.0103   -2.7603 C   0  0  0  0  0  0  0  0  0  0  0  0
    5.1200   -2.2981   -2.3255 C   0  0  0  0  0  0  0  0  0  0  0  0
    5.7507   -3.4877   -2.8831 C   0  0  0  0  0  0  0  0  0  0  0  0
    5.5760   -4.8451   -2.6867 C   0  0  0  0  0  0  0  0  0  0  0  0
    6.5290   -5.5036   -3.5015 C   0  0  0  0  0  0  0  0  0  0  0  0
    7.2200   -4.5118   -4.1552 C   0  0  0  0  0  0  0  0  0  0  0  0
    6.7548   -3.2885   -3.7928 O   0  0  0  0  0  0  0  0  0  0  0  0
    4.2166   -2.5390   -1.3395 N   0  0  0  0  0  0  0  0  0  0  0  0
    3.6055   -1.4675   -0.7811 C   0  0  0  0  0  0  0  0  0  0  0  0
    3.2892    0.2189    1.3588 H   0  0  0  0  0  0  0  0  0  0  0  0
    1.5051    2.5350    0.7779 H   0  0  0  0  0  0  0  0  0  0  0  0
    0.9968   -0.0205    1.4170 H   0  0  0  0  0  0  0  0  0  0  0  0
    4.0348    1.5920    3.4986 H   0  0  0  0  0  0  0  0  0  0  0  0
    5.8035    3.1448    4.2184 H   0  0  0  0  0  0  0  0  0  0  0  0
    6.0414    5.3486    3.1777 H   0  0  0  0  0  0  0  0  0  0  0  0
    6.7809    6.2684    1.0854 H   0  0  0  0  0  0  0  0  0  0  0  0
    7.0752    8.3872   -0.1439 H   0  0  0  0  0  0  0  0  0  0  0  0
    3.0164    8.9778   -0.4443 H   0  0  0  0  0  0  0  0  0  0  0  0
    2.5120    6.9057    0.8106 H   0  0  0  0  0  0  0  0  0  0  0  0
    2.7049    4.4878    0.5919 H   0  0  0  0  0  0  0  0  0  0  0  0
    5.0005    1.0872   -2.4964 H   0  0  0  0  0  0  0  0  0  0  0  0
    6.1448   -0.8472   -3.5564 H   0  0  0  0  0  0  0  0  0  0  0  0
    4.8505   -5.2949   -2.0228 H   0  0  0  0  0  0  0  0  0  0  0  0
    6.6946   -6.5676   -3.5972 H   0  0  0  0  0  0  0  0  0  0  0  0
    8.0318   -4.5103   -4.8694 H   0  0  0  0  0  0  0  0  0  0  0  0
    2.8672   -1.7235   -0.0276 H   0  0  0  0  0  0  0  0  0  0  0  0
  1  2  2  0  0  0  0
  2  3  1  0  0  0  0
  2 20  1  0  0  0  0
  3  4  1  0  0  0  0
  3 31  1  0  0  0  0
  4  5  1  0  0  0  0
  4  8  1  0  0  0  0
  4 32  1  0  0  0  0
  5  6  2  0  0  0  0
  5  7  1  0  0  0  0
  7 33  1  0  0  0  0
  8  9  2  0  0  0  0
  8 19  1  0  0  0  0
  9 10  1  0  0  0  0
  9 34  1  0  0  0  0
 10 11  2  0  0  0  0
 10 35  1  0  0  0  0
 11 12  1  0  0  0  0
 11 36  1  0  0  0  0
 12 13  1  0  0  0  0
 12 19  2  0  0  0  0
 13 14  2  0  0  0  0
 13 18  1  0  0  0  0
 14 15  1  0  0  0  0
 14 37  1  0  0  0  0
 15 16  2  0  0  0  0
 15 38  1  0  0  0  0
 16 17  1  0  0  0  0
 17 18  2  0  0  0  0
 17 39  1  0  0  0  0
 18 40  1  0  0  0  0
 19 41  1  0  0  0  0
 20 21  2  0  0  0  0
 20 30  1  0  0  0  0
 21 22  1  0  0  0  0
 21 42  1  0  0  0  0
 22 23  2  0  0  0  0
 22 43  1  0  0  0  0
 23 24  1  0  0  0  0
 23 29  1  0  0  0  0
 24 25  2  0  0  0  0
 24 28  1  0  0  0  0
 25 26  1  0  0  0  0
 25 44  1  0  0  0  0
 26 27  2  0  0  0  0
 26 45  1  0  0  0  0
 27 28  1  0  0  0  0
 27 46  1  0  0  0  0
 29 30  2  0  0  0  0
 30 47  1  0  0  0  0
M  END
$$$$
