
 OpenBabel01122422393D

 47 50  0  0  1  0  0  0  0  0999 V2000
    0.9723   -0.0764    0.2872 C   0  0  0  0  0  0  0  0  0  0  0  0
    2.3995    0.0672   -0.0118 N   0  0  0  0  0  0  0  0  0  0  0  0
    2.8985    0.9911   -0.9716 C   0  0  0  0  0  0  0  0  0  0  0  0
    4.1037    1.2180   -1.1018 O   0  0  0  0  0  0  0  0  0  0  0  0
    1.9470    1.7553   -1.8532 C   0  0  0  0  0  0  0  0  0  0  0  0
    0.8339    1.0778   -2.1955 N   0  0  0  0  0  0  0  0  0  0  0  0
   -0.1788    1.7108   -2.8398 N   0  0  0  0  0  0  0  0  0  0  0  0
   -0.0760    3.0039   -3.1570 C   0  0  0  0  0  0  0  0  0  0  0  0
   -1.1677    3.6025   -3.7720 C   0  0  0  0  0  0  0  0  0  0  0  0
   -1.1578    4.9502   -4.1302 C   0  0  0  0  0  0  0  0  0  0  0  0
   -0.0250    5.7072   -3.8915 C   0  0  0  0  0  0  0  0  0  0  0  0
    1.0946    5.1170   -3.2928 C   0  0  0  0  0  0  0  0  0  0  0  0
    1.0900    3.7509   -2.9010 C   0  0  0  0  0  0  0  0  0  0  0  0
    2.1669    3.0944   -2.2331 C   0  0  0  0  0  0  0  0  0  0  0  0
    3.4346    3.7071   -2.1526 N   0  0  0  0  0  0  0  0  0  0  0  0
    3.2411   -1.0713    0.4329 C   0  0  3  0  0  0  0  0  0  0  0  0
    3.5166   -1.9906   -0.7486 C   0  0  0  0  0  0  0  0  0  0  0  0
    4.6201   -1.8085   -1.5924 C   0  0  0  0  0  0  0  0  0  0  0  0
    4.7974   -2.6224   -2.6972 C   0  0  0  0  0  0  0  0  0  0  0  0
    3.8620   -3.6140   -2.9370 C   0  0  0  0  0  0  0  0  0  0  0  0
    2.7907   -3.8409   -2.1449 N   0  0  0  0  0  0  0  0  0  0  0  0
    2.6382   -3.0205   -1.0811 C   0  0  0  0  0  0  0  0  0  0  0  0
    4.4885   -0.7632    1.2798 C   0  0  0  0  0  0  0  0  0  0  0  0
    5.3175   -1.8351    1.6937 C   0  0  0  0  0  0  0  0  0  0  0  0
    6.5489   -1.6042    2.3136 C   0  0  0  0  0  0  0  0  0  0  0  0
    6.9564   -0.2995    2.5502 C   0  0  0  0  0  0  0  0  0  0  0  0
    8.1665   -0.0733    3.0800 F   0  0  0  0  0  0  0  0  0  0  0  0
    6.1184    0.7608    2.2341 C   0  0  0  0  0  0  0  0  0  0  0  0
    6.5087    2.0203    2.4750 F   0  0  0  0  0  0  0  0  0  0  0  0
    4.8793    0.5351    1.6354 C   0  0  0  0  0  0  0  0  0  0  0  0
    0.4013    0.8263    0.0666 H   0  0  0  0  0  0  0  0  0  0  0  0
    0.8482   -0.2739    1.3560 H   0  0  0  0  0  0  0  0  0  0  0  0
    0.5717   -0.9201   -0.2842 H   0  0  0  0  0  0  0  0  0  0  0  0
   -2.0570    3.0054   -3.9629 H   0  0  0  0  0  0  0  0  0  0  0  0
   -2.0361    5.3924   -4.5935 H   0  0  0  0  0  0  0  0  0  0  0  0
   -0.0071    6.7603   -4.1653 H   0  0  0  0  0  0  0  0  0  0  0  0
    1.9623    5.7439   -3.1201 H   0  0  0  0  0  0  0  0  0  0  0  0
    3.4830    4.7150   -2.0811 H   0  0  0  0  0  0  0  0  0  0  0  0
    4.1320    3.2027   -1.6004 H   0  0  0  0  0  0  0  0  0  0  0  0
    2.6186   -1.6419    1.1399 H   0  0  0  0  0  0  0  0  0  0  0  0
    5.3379   -1.0104   -1.3956 H   0  0  0  0  0  0  0  0  0  0  0  0
    5.6392   -2.4776   -3.3655 H   0  0  0  0  0  0  0  0  0  0  0  0
    3.9482   -4.2657   -3.8006 H   0  0  0  0  0  0  0  0  0  0  0  0
    1.7480   -3.2214   -0.4896 H   0  0  0  0  0  0  0  0  0  0  0  0
    5.0300   -2.8662    1.4872 H   0  0  0  0  0  0  0  0  0  0  0  0
    7.2010   -2.4299    2.5810 H   0  0  0  0  0  0  0  0  0  0  0  0
    4.2645    1.3974    1.4011 H   0  0  0  0  0  0  0  0  0  0  0  0
  1  2  1  0  0  0  0
  1 31  1  0  0  0  0
  1 32  1  0  0  0  0
  1 33  1  0  0  0  0
  2  3  1  0  0  0  0
  2 16  1  0  0  0  0
  3  4  2  0  0  0  0
  3  5  1  0  0  0  0
  5  6  2  0  0  0  0
  5 14  1  0  0  0  0
  6  7  1  0  0  0  0
  7  8  2  0  0  0  0
  8  9  1  0  0  0  0
  8 13  1  0  0  0  0
  9 10  2  0  0  0  0
  9 34  1  0  0  0  0
 10 11  1  0  0  0  0
 10 35  1  0  0  0  0
 11 12  2  0  0  0  0
 11 36  1  0  0  0  0
 12 13  1  0  0  0  0
 12 37  1  0  0  0  0
 13 14  2  0  0  0  0
 14 15  1  0  0  0  0
 15 38  1  0  0  0  0
 15 39  1  0  0  0  0
 16 17  1  0  0  0  0
 16 23  1  0  0  0  0
 16 40  1  0  0  0  0
 17 18  2  0  0  0  0
 17 22  1  0  0  0  0
 18 19  1  0  0  0  0
 18 41  1  0  0  0  0
 19 20  2  0  0  0  0
 19 42  1  0  0  0  0
 20 21  1  0  0  0  0
 20 43  1  0  0  0  0
 21 22  2  0  0  0  0
 22 44  1  0  0  0  0
 23 24  2  0  0  0  0
 23 30  1  0  0  0  0
 24 25  1  0  0  0  0
 24 45  1  0  0  0  0
 25 26  2  0  0  0  0
 25 46  1  0  0  0  0
 26 27  1  0  0  0  0
 26 28  1  0  0  0  0
 28 29  1  0  0  0  0
 28 30  2  0  0  0  0
 30 47  1  0  0  0  0
M  END
$$$$
