
 OpenBabel01122422393D

 47 50  0  0  1  0  0  0  0  0999 V2000
    1.1189    0.1288    0.2494 O   0  0  0  0  0  0  0  0  0  0  0  0
    2.3325    0.0009    0.0371 C   0  0  0  0  0  0  0  0  0  0  0  0
    2.9627    0.5967   -1.0463 N   0  0  0  0  0  0  0  0  0  0  0  0
    2.3191    1.3983   -1.9851 C   0  0  0  0  0  0  0  0  0  0  0  0
    1.2156    2.1148   -1.7152 C   0  0  0  0  0  0  0  0  0  0  0  0
    0.6294    2.9970   -2.6807 C   0  0  0  0  0  0  0  0  0  0  0  0
    1.1444    3.0885   -3.9051 C   0  0  0  0  0  0  0  0  0  0  0  0
    2.2391    2.3261   -4.3021 N   0  0  0  0  0  0  0  0  0  0  0  0
    2.6793    2.3456   -5.6608 C   0  0  0  0  0  0  0  0  0  0  0  0
    1.7634    2.1285   -6.7040 C   0  0  0  0  0  0  0  0  0  0  0  0
    2.2098    2.0343   -8.0244 C   0  0  0  0  0  0  0  0  0  0  0  0
    3.5608    2.2088   -8.3193 C   0  0  0  0  0  0  0  0  0  0  0  0
    4.4647    2.4903   -7.2960 C   0  0  0  0  0  0  0  0  0  0  0  0
    4.0271    2.5487   -5.9707 C   0  0  0  0  0  0  0  0  0  0  0  0
    2.8775    1.4248   -3.4027 C   0  0  0  0  0  0  0  0  0  0  0  0
    3.7764    0.6427   -3.6850 O   0  0  0  0  0  0  0  0  0  0  0  0
    3.2103   -0.8830    0.9430 C   0  0  3  0  0  0  0  0  0  0  0  0
    3.0670   -0.5095    2.4231 C   0  0  0  0  0  0  0  0  0  0  0  0
    1.8115   -0.5114    3.0570 C   0  0  0  0  0  0  0  0  0  0  0  0
    1.6546   -0.0169    4.3536 C   0  0  0  0  0  0  0  0  0  0  0  0
    2.7583    0.4455    5.0621 C   0  0  0  0  0  0  0  0  0  0  0  0
    4.0264    0.3895    4.4801 C   0  0  0  0  0  0  0  0  0  0  0  0
    4.1787   -0.0828    3.1720 C   0  0  0  0  0  0  0  0  0  0  0  0
    2.9638   -2.3232    0.7180 N   0  0  0  0  0  0  0  0  0  0  0  0
    3.9165   -3.3017    0.8620 C   0  0  0  0  0  0  0  0  0  0  0  0
    3.3603   -4.5109    0.5204 C   0  0  0  0  0  0  0  0  0  0  0  0
    2.0168   -4.2723    0.1616 C   0  0  0  0  0  0  0  0  0  0  0  0
    1.7980   -2.9123    0.2755 C   0  0  0  0  0  0  0  0  0  0  0  0
    3.8934    0.2830   -1.3235 H   0  0  0  0  0  0  0  0  0  0  0  0
    0.7509    2.1133   -0.7368 H   0  0  0  0  0  0  0  0  0  0  0  0
   -0.2166    3.6085   -2.3656 H   0  0  0  0  0  0  0  0  0  0  0  0
    0.7428    3.7936   -4.6261 H   0  0  0  0  0  0  0  0  0  0  0  0
    0.7129    1.9478   -6.4910 H   0  0  0  0  0  0  0  0  0  0  0  0
    1.5084    1.7965   -8.8206 H   0  0  0  0  0  0  0  0  0  0  0  0
    3.9125    2.1141   -9.3438 H   0  0  0  0  0  0  0  0  0  0  0  0
    5.5163    2.6416   -7.5257 H   0  0  0  0  0  0  0  0  0  0  0  0
    4.7451    2.7610   -5.1829 H   0  0  0  0  0  0  0  0  0  0  0  0
    4.2555   -0.7247    0.6425 H   0  0  0  0  0  0  0  0  0  0  0  0
    0.9268   -0.8656    2.5287 H   0  0  0  0  0  0  0  0  0  0  0  0
    0.6646    0.0203    4.8005 H   0  0  0  0  0  0  0  0  0  0  0  0
    2.6318    0.8475    6.0641 H   0  0  0  0  0  0  0  0  0  0  0  0
    4.8888    0.7227    5.0491 H   0  0  0  0  0  0  0  0  0  0  0  0
    5.1790   -0.0933    2.7440 H   0  0  0  0  0  0  0  0  0  0  0  0
    4.9156   -3.0589    1.2033 H   0  0  0  0  0  0  0  0  0  0  0  0
    3.8648   -5.4695    0.5271 H   0  0  0  0  0  0  0  0  0  0  0  0
    1.2847   -5.0052   -0.1492 H   0  0  0  0  0  0  0  0  0  0  0  0
    0.9026   -2.3411    0.0727 H   0  0  0  0  0  0  0  0  0  0  0  0
  1  2  2  0  0  0  0
  2  3  1  0  0  0  0
  2 17  1  0  0  0  0
  3  4  1  0  0  0  0
  3 29  1  0  0  0  0
  4  5  2  0  0  0  0
  4 15  1  0  0  0  0
  5  6  1  0  0  0  0
  5 30  1  0  0  0  0
  6  7  2  0  0  0  0
  6 31  1  0  0  0  0
  7  8  1  0  0  0  0
  7 32  1  0  0  0  0
  8  9  1  0  0  0  0
  8 15  1  0  0  0  0
  9 10  2  0  0  0  0
  9 14  1  0  0  0  0
 10 11  1  0  0  0  0
 10 33  1  0  0  0  0
 11 12  2  0  0  0  0
 11 34  1  0  0  0  0
 12 13  1  0  0  0  0
 12 35  1  0  0  0  0
 13 14  2  0  0  0  0
 13 36  1  0  0  0  0
 14 37  1  0  0  0  0
 15 16  2  0  0  0  0
 17 18  1  0  0  0  0
 17 24  1  0  0  0  0
 17 38  1  0  0  0  0
 18 19  2  0  0  0  0
 18 23  1  0  0  0  0
 19 20  1  0  0  0  0
 19 39  1  0  0  0  0
 20 21  2  0  0  0  0
 20 40  1  0  0  0  0
 21 22  1  0  0  0  0
 21 41  1  0  0  0  0
 22 23  2  0  0  0  0
 22 42  1  0  0  0  0
 23 43  1  0  0  0  0
 24 25  1  0  0  0  0
 24 28  1  0  0  0  0
 25 26  2  0  0  0  0
 25 44  1  0  0  0  0
 26 27  1  0  0  0  0
 26 45  1  0  0  0  0
 27 28  2  0  0  0  0
 27 46  1  0  0  0  0
 28 47  1  0  0  0  0
M  END
$$$$
