
 OpenBabel01122422393D

 44 47  0  0  1  0  0  0  0  0999 V2000
    1.0045   -0.1034    0.0548 C   0  0  0  0  0  0  0  0  0  0  0  0
    2.5314   -0.1267    0.0232 C   0  0  3  0  0  0  0  0  0  0  0  0
    3.0847    1.0985    0.6021 N   0  0  0  0  0  0  0  0  0  0  0  0
    3.2383    2.2399   -0.1485 C   0  0  0  0  0  0  0  0  0  0  0  0
    2.9308    2.3052   -1.3336 O   0  0  0  0  0  0  0  0  0  0  0  0
    3.7820    3.4452    0.5384 C   0  0  0  0  0  0  0  0  0  0  0  0
    3.4428    4.7082    0.0184 C   0  0  0  0  0  0  0  0  0  0  0  0
    3.9307    5.8768    0.6130 C   0  0  0  0  0  0  0  0  0  0  0  0
    4.7820    5.7779    1.7188 C   0  0  0  0  0  0  0  0  0  0  0  0
    5.2703    6.9474    2.3211 N   0  0  0  0  0  0  0  0  0  0  0  0
    4.9470    8.2080    1.8963 C   0  0  0  0  0  0  0  0  0  0  0  0
    5.3723    9.2188    2.4425 O   0  0  0  0  0  0  0  0  0  0  0  0
    4.0410    8.3016    0.7239 C   0  0  0  0  0  0  0  0  0  0  0  0
    3.5683    7.2047    0.1145 C   0  0  0  0  0  0  0  0  0  0  0  0
    5.1349    4.5237    2.2167 C   0  0  0  0  0  0  0  0  0  0  0  0
    5.9641    4.4324    3.2673 F   0  0  0  0  0  0  0  0  0  0  0  0
    4.6403    3.3553    1.6400 C   0  0  0  0  0  0  0  0  0  0  0  0
    3.0506   -1.2913    0.8119 C   0  0  0  0  0  0  0  0  0  0  0  0
    3.2305   -1.3706    2.1178 N   0  0  0  0  0  0  0  0  0  0  0  0
    3.7377   -2.6318    2.2917 C   0  0  0  0  0  0  0  0  0  0  0  0
    3.8584   -3.2854    1.0805 C   0  0  0  0  0  0  0  0  0  0  0  0
    4.3738   -4.5854    0.6681 C   0  0  0  0  0  0  0  0  0  0  0  0
    4.8396   -5.4892    1.6412 C   0  0  0  0  0  0  0  0  0  0  0  0
    5.4104   -6.7115    1.2774 C   0  0  0  0  0  0  0  0  0  0  0  0
    5.5114   -7.0444   -0.0648 C   0  0  0  0  0  0  0  0  0  0  0  0
    6.0818   -8.2041   -0.4152 F   0  0  0  0  0  0  0  0  0  0  0  0
    5.0337   -6.1860   -1.0470 C   0  0  0  0  0  0  0  0  0  0  0  0
    4.4632   -4.9598   -0.6821 C   0  0  0  0  0  0  0  0  0  0  0  0
    3.4045   -2.4210    0.1162 O   0  0  0  0  0  0  0  0  0  0  0  0
    0.6093    0.7490   -0.5078 H   0  0  0  0  0  0  0  0  0  0  0  0
    0.6250   -0.0240    1.0809 H   0  0  0  0  0  0  0  0  0  0  0  0
    0.5900   -1.0193   -0.3813 H   0  0  0  0  0  0  0  0  0  0  0  0
    2.8702   -0.2029   -1.0160 H   0  0  0  0  0  0  0  0  0  0  0  0
    3.1961    1.1073    1.6090 H   0  0  0  0  0  0  0  0  0  0  0  0
    2.7914    4.7697   -0.8527 H   0  0  0  0  0  0  0  0  0  0  0  0
    5.8912    6.8798    3.1184 H   0  0  0  0  0  0  0  0  0  0  0  0
    3.7893    9.3023    0.3948 H   0  0  0  0  0  0  0  0  0  0  0  0
    2.9087    7.2843   -0.7429 H   0  0  0  0  0  0  0  0  0  0  0  0
    4.9594    2.4009    2.0446 H   0  0  0  0  0  0  0  0  0  0  0  0
    4.0046   -2.9966    3.2738 H   0  0  0  0  0  0  0  0  0  0  0  0
    4.7771   -5.2492    2.7000 H   0  0  0  0  0  0  0  0  0  0  0  0
    5.7842   -7.3953    2.0329 H   0  0  0  0  0  0  0  0  0  0  0  0
    5.1194   -6.4704   -2.0915 H   0  0  0  0  0  0  0  0  0  0  0  0
    4.1043   -4.2966   -1.4670 H   0  0  0  0  0  0  0  0  0  0  0  0
  1  2  1  0  0  0  0
  1 30  1  0  0  0  0
  1 31  1  0  0  0  0
  1 32  1  0  0  0  0
  2  3  1  0  0  0  0
  2 18  1  0  0  0  0
  2 33  1  0  0  0  0
  3  4  1  0  0  0  0
  3 34  1  0  0  0  0
  4  5  2  0  0  0  0
  4  6  1  0  0  0  0
  6  7  2  0  0  0  0
  6 17  1  0  0  0  0
  7  8  1  0  0  0  0
  7 35  1  0  0  0  0
  8  9  2  0  0  0  0
  8 14  1  0  0  0  0
  9 10  1  0  0  0  0
  9 15  1  0  0  0  0
 10 11  1  0  0  0  0
 10 36  1  0  0  0  0
 11 12  2  0  0  0  0
 11 13  1  0  0  0  0
 13 14  2  0  0  0  0
 13 37  1  0  0  0  0
 14 38  1  0  0  0  0
 15 16  1  0  0  0  0
 15 17  2  0  0  0  0
 17 39  1  0  0  0  0
 18 19  2  0  0  0  0
 18 29  1  0  0  0  0
 19 20  1  0  0  0  0
 20 21  2  0  0  0  0
 20 40  1  0  0  0  0
 21 22  1  0  0  0  0
 21 29  1  0  0  0  0
 22 23  2  0  0  0  0
 22 28  1  0  0  0  0
 23 24  1  0  0  0  0
 23 41  1  0  0  0  0
 24 25  2  0  0  0  0
 24 42  1  0  0  0  0
 25 26  1  0  0  0  0
 25 27  1  0  0  0  0
 27 28  2  0  0  0  0
 27 43  1  0  0  0  0
 28 44  1  0  0  0  0
M  END
$$$$
