
 OpenBabel01122422393D

 54 57  0  0  1  0  0  0  0  0999 V2000
    1.4040    0.9488   -1.2424 C   0  0  0  0  0  0  0  0  0  0  0  0
    2.7906    0.6191   -1.2107 O   0  0  0  0  0  0  0  0  0  0  0  0
    3.0717   -0.7073   -1.4028 C   0  0  0  0  0  0  0  0  0  0  0  0
    2.2544   -1.6030   -2.0895 C   0  0  0  0  0  0  0  0  0  0  0  0
    2.6060   -2.9502   -2.1737 C   0  0  0  0  0  0  0  0  0  0  0  0
    3.8029   -3.3961   -1.6178 C   0  0  0  0  0  0  0  0  0  0  0  0
    4.6851   -2.4905   -1.0172 C   0  0  0  0  0  0  0  0  0  0  0  0
    6.0488   -2.9481   -0.5487 C   0  0  0  0  0  0  0  0  0  0  0  0
    6.9153   -3.5586   -1.6841 C   0  0  3  0  0  0  0  0  0  0  0  0
    7.1274   -2.6146   -2.7752 N   0  0  0  0  0  0  0  0  0  0  0  0
    7.3795   -3.0292   -4.0690 C   0  0  0  0  0  0  0  0  0  0  0  0
    7.2928   -4.2018   -4.4286 O   0  0  0  0  0  0  0  0  0  0  0  0
    7.8115   -1.9557   -4.9563 C   0  0  0  0  0  0  0  0  0  0  0  0
    8.4941   -2.0737   -6.1579 C   0  0  0  0  0  0  0  0  0  0  0  0
    8.8853   -3.1768   -6.8378 N   0  0  0  0  0  0  0  0  0  0  0  0
    8.8007   -0.7712   -6.5775 N   0  0  0  0  0  0  0  0  0  0  0  0
    9.6066   -0.3661   -7.6970 C   0  0  0  0  0  0  0  0  0  0  0  0
    9.8813    0.9942   -7.8580 C   0  0  0  0  0  0  0  0  0  0  0  0
   10.6764    1.4026   -8.9263 C   0  0  0  0  0  0  0  0  0  0  0  0
   11.1705    0.4510   -9.8082 C   0  0  0  0  0  0  0  0  0  0  0  0
   10.8585   -0.8765   -9.5833 C   0  0  0  0  0  0  0  0  0  0  0  0
   10.0967   -1.3120   -8.5521 N   0  0  0  0  0  0  0  0  0  0  0  0
    8.2436    0.1589   -5.7433 N   0  0  0  0  0  0  0  0  0  0  0  0
    7.6420   -0.5660   -4.8032 C   0  0  0  0  0  0  0  0  0  0  0  0
    8.2622   -4.0205   -1.1433 C   0  0  0  0  0  0  0  0  0  0  0  0
    8.6391   -5.3661   -1.2639 C   0  0  0  0  0  0  0  0  0  0  0  0
    9.8723   -5.8055   -0.7803 C   0  0  0  0  0  0  0  0  0  0  0  0
   10.7469   -4.9049   -0.1766 C   0  0  0  0  0  0  0  0  0  0  0  0
   10.3926   -3.5626   -0.0596 C   0  0  0  0  0  0  0  0  0  0  0  0
    9.1601   -3.1218   -0.5417 C   0  0  0  0  0  0  0  0  0  0  0  0
    4.2946   -1.1484   -0.8863 C   0  0  0  0  0  0  0  0  0  0  0  0
    1.2900    1.9714   -0.8709 H   0  0  0  0  0  0  0  0  0  0  0  0
    0.8215    0.2898   -0.5879 H   0  0  0  0  0  0  0  0  0  0  0  0
    1.0194    0.9227   -2.2670 H   0  0  0  0  0  0  0  0  0  0  0  0
    1.3403   -1.2809   -2.5757 H   0  0  0  0  0  0  0  0  0  0  0  0
    1.9540   -3.6500   -2.6870 H   0  0  0  0  0  0  0  0  0  0  0  0
    4.0538   -4.4517   -1.6886 H   0  0  0  0  0  0  0  0  0  0  0  0
    5.9122   -3.6813    0.2572 H   0  0  0  0  0  0  0  0  0  0  0  0
    6.5694   -2.0947   -0.0951 H   0  0  0  0  0  0  0  0  0  0  0  0
    6.3904   -4.4276   -2.0994 H   0  0  0  0  0  0  0  0  0  0  0  0
    7.4005   -1.6821   -2.5104 H   0  0  0  0  0  0  0  0  0  0  0  0
    8.6582   -4.1204   -6.5267 H   0  0  0  0  0  0  0  0  0  0  0  0
    9.4183   -3.0971   -7.7099 H   0  0  0  0  0  0  0  0  0  0  0  0
    9.5001    1.7359   -7.1609 H   0  0  0  0  0  0  0  0  0  0  0  0
   10.9063    2.4551   -9.0629 H   0  0  0  0  0  0  0  0  0  0  0  0
   11.7884    0.7418  -10.6530 H   0  0  0  0  0  0  0  0  0  0  0  0
   11.2247   -1.6562  -10.2474 H   0  0  0  0  0  0  0  0  0  0  0  0
    7.1051   -0.0379   -4.0235 H   0  0  0  0  0  0  0  0  0  0  0  0
    7.9776   -6.0817   -1.7496 H   0  0  0  0  0  0  0  0  0  0  0  0
   10.1537   -6.8502   -0.8838 H   0  0  0  0  0  0  0  0  0  0  0  0
   11.7091   -5.2473    0.1944 H   0  0  0  0  0  0  0  0  0  0  0  0
   11.0788   -2.8587    0.4028 H   0  0  0  0  0  0  0  0  0  0  0  0
    8.9123   -2.0674   -0.4497 H   0  0  0  0  0  0  0  0  0  0  0  0
    4.9385   -0.4321   -0.3805 H   0  0  0  0  0  0  0  0  0  0  0  0
  1  2  1  0  0  0  0
  1 32  1  0  0  0  0
  1 33  1  0  0  0  0
  1 34  1  0  0  0  0
  2  3  1  0  0  0  0
  3  4  2  0  0  0  0
  3 31  1  0  0  0  0
  4  5  1  0  0  0  0
  4 35  1  0  0  0  0
  5  6  2  0  0  0  0
  5 36  1  0  0  0  0
  6  7  1  0  0  0  0
  6 37  1  0  0  0  0
  7  8  1  0  0  0  0
  7 31  2  0  0  0  0
  8  9  1  0  0  0  0
  8 38  1  0  0  0  0
  8 39  1  0  0  0  0
  9 10  1  0  0  0  0
  9 25  1  0  0  0  0
  9 40  1  0  0  0  0
 10 11  1  0  0  0  0
 10 41  1  0  0  0  0
 11 12  2  0  0  0  0
 11 13  1  0  0  0  0
 13 14  2  0  0  0  0
 13 24  1  0  0  0  0
 14 15  1  0  0  0  0
 14 16  1  0  0  0  0
 15 42  1  0  0  0  0
 15 43  1  0  0  0  0
 16 17  1  0  0  0  0
 16 23  1  0  0  0  0
 17 18  2  0  0  0  0
 17 22  1  0  0  0  0
 18 19  1  0  0  0  0
 18 44  1  0  0  0  0
 19 20  2  0  0  0  0
 19 45  1  0  0  0  0
 20 21  1  0  0  0  0
 20 46  1  0  0  0  0
 21 22  2  0  0  0  0
 21 47  1  0  0  0  0
 23 24  2  0  0  0  0
 24 48  1  0  0  0  0
 25 26  2  0  0  0  0
 25 30  1  0  0  0  0
 26 27  1  0  0  0  0
 26 49  1  0  0  0  0
 27 28  2  0  0  0  0
 27 50  1  0  0  0  0
 28 29  1  0  0  0  0
 28 51  1  0  0  0  0
 29 30  2  0  0  0  0
 29 52  1  0  0  0  0
 30 53  1  0  0  0  0
 31 54  1  0  0  0  0
M  END
$$$$
