
 OpenBabel01122422393D

 48 51  0  0  0  0  0  0  0  0999 V2000
    1.2380   -9.5411    7.1365 N   0  0  0  0  0  0  0  0  0  0  0  0
    1.7937   -8.5179    8.3448 S   0  0  0  0  0  0  0  0  0  0  0  0
    0.6393   -8.1690    9.1402 O   0  0  0  0  0  0  0  0  0  0  0  0
    2.9538   -9.1677    8.9073 O   0  0  0  0  0  0  0  0  0  0  0  0
    2.3092   -7.0986    7.4182 C   0  0  0  0  0  0  0  0  0  0  0  0
    1.4252   -6.0457    7.1784 C   0  0  0  0  0  0  0  0  0  0  0  0
    1.8752   -4.9083    6.4929 C   0  0  0  0  0  0  0  0  0  0  0  0
    3.2092   -4.8245    6.0668 C   0  0  0  0  0  0  0  0  0  0  0  0
    3.8060   -3.3766    5.2062 S   0  0  0  0  0  0  0  0  0  0  0  0
    4.3960   -2.4133    6.6011 C   0  0  0  0  0  0  0  0  0  0  0  0
    3.4825   -1.4694    7.1219 C   0  0  0  0  0  0  0  0  0  0  0  0
    3.8133   -0.7155    8.2574 C   0  0  0  0  0  0  0  0  0  0  0  0
    5.0369   -0.8971    8.8898 C   0  0  0  0  0  0  0  0  0  0  0  0
    5.9547   -1.8188    8.3744 C   0  0  0  0  0  0  0  0  0  0  0  0
    5.6518   -2.5679    7.2200 C   0  0  0  0  0  0  0  0  0  0  0  0
    6.7429   -3.4708    6.7478 C   0  0  0  0  0  0  0  0  0  0  0  0
    7.4714   -4.0258    7.5750 O   0  0  0  0  0  0  0  0  0  0  0  0
    6.9380   -3.5763    5.3980 N   0  0  0  0  0  0  0  0  0  0  0  0
    8.0679   -4.2866    4.8299 C   0  0  0  0  0  0  0  0  0  0  0  0
    8.9529   -3.3610    4.0278 C   0  0  0  0  0  0  0  0  0  0  0  0
    9.3483   -2.1198    4.5604 C   0  0  0  0  0  0  0  0  0  0  0  0
   10.0469   -1.1789    3.7907 C   0  0  0  0  0  0  0  0  0  0  0  0
   10.4710   -1.5517    2.5076 C   0  0  0  0  0  0  0  0  0  0  0  0
   11.1243   -0.9156    1.4227 C   0  0  0  0  0  0  0  0  0  0  0  0
   11.5565   -1.9349    0.6063 C   0  0  0  0  0  0  0  0  0  0  0  0
   10.9558   -3.1057    0.9525 O   0  0  0  0  0  0  0  0  0  0  0  0
   10.2475   -2.8570    2.0910 C   0  0  0  0  0  0  0  0  0  0  0  0
    9.4376   -3.7650    2.7709 C   0  0  0  0  0  0  0  0  0  0  0  0
    4.0794   -5.8909    6.3071 C   0  0  0  0  0  0  0  0  0  0  0  0
    3.6373   -7.0248    6.9895 C   0  0  0  0  0  0  0  0  0  0  0  0
    0.2864   -9.8381    7.3587 H   0  0  0  0  0  0  0  0  0  0  0  0
    1.8880  -10.3184    7.0143 H   0  0  0  0  0  0  0  0  0  0  0  0
    0.3936   -6.0958    7.5217 H   0  0  0  0  0  0  0  0  0  0  0  0
    1.1829   -4.0933    6.3041 H   0  0  0  0  0  0  0  0  0  0  0  0
    2.5103   -1.3388    6.6623 H   0  0  0  0  0  0  0  0  0  0  0  0
    3.1053    0.0094    8.6531 H   0  0  0  0  0  0  0  0  0  0  0  0
    5.2943   -0.3361    9.7847 H   0  0  0  0  0  0  0  0  0  0  0  0
    6.9075   -1.9471    8.8755 H   0  0  0  0  0  0  0  0  0  0  0  0
    6.3226   -3.0771    4.7626 H   0  0  0  0  0  0  0  0  0  0  0  0
    7.6484   -5.0658    4.1839 H   0  0  0  0  0  0  0  0  0  0  0  0
    8.6633   -4.7734    5.6086 H   0  0  0  0  0  0  0  0  0  0  0  0
    9.0986   -1.8704    5.5911 H   0  0  0  0  0  0  0  0  0  0  0  0
   10.3033   -0.2082    4.2030 H   0  0  0  0  0  0  0  0  0  0  0  0
   11.3406    0.1359    1.3045 H   0  0  0  0  0  0  0  0  0  0  0  0
   12.2331   -1.9834   -0.2349 H   0  0  0  0  0  0  0  0  0  0  0  0
    9.2151   -4.7349    2.3420 H   0  0  0  0  0  0  0  0  0  0  0  0
    5.1170   -5.8478    5.9801 H   0  0  0  0  0  0  0  0  0  0  0  0
    4.3364   -7.8344    7.1900 H   0  0  0  0  0  0  0  0  0  0  0  0
  1  2  1  0  0  0  0
  1 31  1  0  0  0  0
  1 32  1  0  0  0  0
  2  3  2  0  0  0  0
  2  4  2  0  0  0  0
  2  5  1  0  0  0  0
  5  6  2  0  0  0  0
  5 30  1  0  0  0  0
  6  7  1  0  0  0  0
  6 33  1  0  0  0  0
  7  8  2  0  0  0  0
  7 34  1  0  0  0  0
  8  9  1  0  0  0  0
  8 29  1  0  0  0  0
  9 10  1  0  0  0  0
 10 11  2  0  0  0  0
 10 15  1  0  0  0  0
 11 12  1  0  0  0  0
 11 35  1  0  0  0  0
 12 13  2  0  0  0  0
 12 36  1  0  0  0  0
 13 14  1  0  0  0  0
 13 37  1  0  0  0  0
 14 15  2  0  0  0  0
 14 38  1  0  0  0  0
 15 16  1  0  0  0  0
 16 17  2  0  0  0  0
 16 18  1  0  0  0  0
 18 19  1  0  0  0  0
 18 39  1  0  0  0  0
 19 20  1  0  0  0  0
 19 40  1  0  0  0  0
 19 41  1  0  0  0  0
 20 21  2  0  0  0  0
 20 28  1  0  0  0  0
 21 22  1  0  0  0  0
 21 42  1  0  0  0  0
 22 23  2  0  0  0  0
 22 43  1  0  0  0  0
 23 24  1  0  0  0  0
 23 27  1  0  0  0  0
 24 25  2  0  0  0  0
 24 44  1  0  0  0  0
 25 26  1  0  0  0  0
 25 45  1  0  0  0  0
 26 27  1  0  0  0  0
 27 28  2  0  0  0  0
 28 46  1  0  0  0  0
 29 30  2  0  0  0  0
 29 47  1  0  0  0  0
 30 48  1  0  0  0  0
M  END
$$$$
