
 OpenBabel01122422393D

 50 53  0  0  1  0  0  0  0  0999 V2000
    3.0793    2.3303   -0.4407 O   0  0  0  0  0  0  0  0  0  0  0  0
    3.3016    1.1492   -0.1864 C   0  0  0  0  0  0  0  0  0  0  0  0
    2.9068    0.5611    0.9901 N   0  0  0  0  0  0  0  0  0  0  0  0
    2.2007    1.3394    1.9988 C   0  0  3  0  0  0  0  0  0  0  0  0
    1.2284    0.4921    2.8506 C   0  0  0  0  0  0  0  0  0  0  0  0
    0.1853   -0.1887    2.0809 N   0  0  0  0  0  0  0  0  0  0  0  0
   -1.0112    0.4616    1.8272 C   0  0  0  0  0  0  0  0  0  0  0  0
   -2.0267   -0.1682    1.2227 C   0  0  0  0  0  0  0  0  0  0  0  0
   -1.8972   -1.5574    0.8644 C   0  0  0  0  0  0  0  0  0  0  0  0
   -0.7340   -2.1989    1.0419 C   0  0  0  0  0  0  0  0  0  0  0  0
    0.4290   -1.4869    1.6353 C   0  0  0  0  0  0  0  0  0  0  0  0
    1.5181   -2.0547    1.7259 O   0  0  0  0  0  0  0  0  0  0  0  0
    3.1827    2.0754    2.9010 C   0  0  0  0  0  0  0  0  0  0  0  0
    3.1605    3.4782    2.9612 C   0  0  0  0  0  0  0  0  0  0  0  0
    4.0354    4.1701    3.8009 C   0  0  0  0  0  0  0  0  0  0  0  0
    4.9466    3.4705    4.5883 C   0  0  0  0  0  0  0  0  0  0  0  0
    4.9865    2.0789    4.5345 C   0  0  0  0  0  0  0  0  0  0  0  0
    4.1126    1.3844    3.6951 C   0  0  0  0  0  0  0  0  0  0  0  0
    3.9886    0.2977   -1.1415 C   0  0  0  0  0  0  0  0  0  0  0  0
    4.4985    0.7536   -2.3410 C   0  0  0  0  0  0  0  0  0  0  0  0
    5.0701   -0.3057   -2.9976 N   0  0  0  0  0  0  0  0  0  0  0  0
    5.7452   -0.2818   -4.2513 C   0  0  0  0  0  0  0  0  0  0  0  0
    6.2106   -1.4776   -4.8178 C   0  0  0  0  0  0  0  0  0  0  0  0
    6.8993   -1.4377   -6.0304 C   0  0  0  0  0  0  0  0  0  0  0  0
    7.3688   -2.5743   -6.6196 O   0  0  0  0  0  0  0  0  0  0  0  0
    7.1356   -0.2332   -6.6837 C   0  0  0  0  0  0  0  0  0  0  0  0
    6.6665    0.9538   -6.1304 C   0  0  0  0  0  0  0  0  0  0  0  0
    5.9681    0.9332   -4.9212 C   0  0  0  0  0  0  0  0  0  0  0  0
    4.9324   -1.4529   -2.2787 N   0  0  0  0  0  0  0  0  0  0  0  0
    4.2966   -1.0756   -1.1633 C   0  0  0  0  0  0  0  0  0  0  0  0
    3.1133   -0.4101    1.1883 H   0  0  0  0  0  0  0  0  0  0  0  0
    1.5940    2.0821    1.4639 H   0  0  0  0  0  0  0  0  0  0  0  0
    0.7402    1.1227    3.6055 H   0  0  0  0  0  0  0  0  0  0  0  0
    1.7855   -0.2721    3.4083 H   0  0  0  0  0  0  0  0  0  0  0  0
   -1.0926    1.5015    2.1315 H   0  0  0  0  0  0  0  0  0  0  0  0
   -2.9640    0.3387    1.0195 H   0  0  0  0  0  0  0  0  0  0  0  0
   -2.7640   -2.0688    0.4579 H   0  0  0  0  0  0  0  0  0  0  0  0
   -0.5969   -3.2440    0.7920 H   0  0  0  0  0  0  0  0  0  0  0  0
    2.4662    4.0452    2.3436 H   0  0  0  0  0  0  0  0  0  0  0  0
    4.0096    5.2563    3.8346 H   0  0  0  0  0  0  0  0  0  0  0  0
    5.6312    4.0103    5.2374 H   0  0  0  0  0  0  0  0  0  0  0  0
    5.7027    1.5336    5.1440 H   0  0  0  0  0  0  0  0  0  0  0  0
    4.1670    0.2983    3.6654 H   0  0  0  0  0  0  0  0  0  0  0  0
    4.4792    1.7514   -2.7519 H   0  0  0  0  0  0  0  0  0  0  0  0
    6.0362   -2.4266   -4.3189 H   0  0  0  0  0  0  0  0  0  0  0  0
    7.1236   -3.3315   -6.0636 H   0  0  0  0  0  0  0  0  0  0  0  0
    7.6853   -0.2216   -7.6210 H   0  0  0  0  0  0  0  0  0  0  0  0
    6.8495    1.8988   -6.6367 H   0  0  0  0  0  0  0  0  0  0  0  0
    5.6280    1.8852   -4.5241 H   0  0  0  0  0  0  0  0  0  0  0  0
    4.0771   -1.8308   -0.4182 H   0  0  0  0  0  0  0  0  0  0  0  0
  1  2  2  0  0  0  0
  2  3  1  0  0  0  0
  2 19  1  0  0  0  0
  3  4  1  0  0  0  0
  3 31  1  0  0  0  0
  4  5  1  0  0  0  0
  4 13  1  0  0  0  0
  4 32  1  0  0  0  0
  5  6  1  0  0  0  0
  5 33  1  0  0  0  0
  5 34  1  0  0  0  0
  6  7  1  0  0  0  0
  6 11  1  0  0  0  0
  7  8  2  0  0  0  0
  7 35  1  0  0  0  0
  8  9  1  0  0  0  0
  8 36  1  0  0  0  0
  9 10  2  0  0  0  0
  9 37  1  0  0  0  0
 10 11  1  0  0  0  0
 10 38  1  0  0  0  0
 11 12  2  0  0  0  0
 13 14  2  0  0  0  0
 13 18  1  0  0  0  0
 14 15  1  0  0  0  0
 14 39  1  0  0  0  0
 15 16  2  0  0  0  0
 15 40  1  0  0  0  0
 16 17  1  0  0  0  0
 16 41  1  0  0  0  0
 17 18  2  0  0  0  0
 17 42  1  0  0  0  0
 18 43  1  0  0  0  0
 19 20  2  0  0  0  0
 19 30  1  0  0  0  0
 20 21  1  0  0  0  0
 20 44  1  0  0  0  0
 21 22  1  0  0  0  0
 21 29  1  0  0  0  0
 22 23  2  0  0  0  0
 22 28  1  0  0  0  0
 23 24  1  0  0  0  0
 23 45  1  0  0  0  0
 24 25  1  0  0  0  0
 24 26  2  0  0  0  0
 25 46  1  0  0  0  0
 26 27  1  0  0  0  0
 26 47  1  0  0  0  0
 27 28  2  0  0  0  0
 27 48  1  0  0  0  0
 28 49  1  0  0  0  0
 29 30  2  0  0  0  0
 30 50  1  0  0  0  0
M  END
$$$$
