
 OpenBabel01122422393D

 48 51  0  0  0  0  0  0  0  0999 V2000
    0.6107   -3.1997    1.0142 C   0  0  0  0  0  0  0  0  0  0  0  0
    0.4275   -1.7659    0.5856 C   0  0  0  0  0  0  0  0  0  0  0  0
   -0.8342   -1.1754    0.7589 C   0  0  0  0  0  0  0  0  0  0  0  0
   -1.0503    0.1359    0.3659 C   0  0  0  0  0  0  0  0  0  0  0  0
   -2.2582    0.6876    0.5413 F   0  0  0  0  0  0  0  0  0  0  0  0
   -0.0304    0.8838   -0.2024 C   0  0  0  0  0  0  0  0  0  0  0  0
    1.2497    0.3270   -0.3907 C   0  0  0  0  0  0  0  0  0  0  0  0
    2.3113    1.2169   -0.9896 C   0  0  0  0  0  0  0  0  0  0  0  0
    1.8957    1.6825   -2.2682 O   0  0  0  0  0  0  0  0  0  0  0  0
    1.4857   -1.0134    0.0064 C   0  0  0  0  0  0  0  0  0  0  0  0
    2.8234   -1.6400   -0.1361 C   0  0  0  0  0  0  0  0  0  0  0  0
    3.6760   -1.5134    0.8840 C   0  0  0  0  0  0  0  0  0  0  0  0
    4.9658   -2.2077    0.8056 C   0  0  0  0  0  0  0  0  0  0  0  0
    5.7609   -2.0753    1.7357 O   0  0  0  0  0  0  0  0  0  0  0  0
    5.1680   -2.9862   -0.3229 N   0  0  0  0  0  0  0  0  0  0  0  0
    6.3514   -3.7083   -0.4257 C   0  0  0  0  0  0  0  0  0  0  0  0
    6.6152   -4.4883   -1.4748 C   0  0  0  0  0  0  0  0  0  0  0  0
    5.6732   -4.5802   -2.5516 C   0  0  0  0  0  0  0  0  0  0  0  0
    4.5251   -3.8787   -2.5517 C   0  0  0  0  0  0  0  0  0  0  0  0
    3.6091   -3.8545   -3.5872 O   0  0  0  0  0  0  0  0  0  0  0  0
    4.0915   -4.2604   -4.8714 C   0  0  0  0  0  0  0  0  0  0  0  0
    3.2188   -3.7307   -5.9824 C   0  0  0  0  0  0  0  0  0  0  0  0
    2.4386   -2.5774   -5.8096 C   0  0  0  0  0  0  0  0  0  0  0  0
    1.7077   -2.0486   -6.8739 C   0  0  0  0  0  0  0  0  0  0  0  0
    1.7570   -2.6593   -8.1248 C   0  0  0  0  0  0  0  0  0  0  0  0
    2.5337   -3.8001   -8.3133 C   0  0  0  0  0  0  0  0  0  0  0  0
    3.2638   -4.3322   -7.2496 C   0  0  0  0  0  0  0  0  0  0  0  0
    4.2035   -3.0217   -1.3332 C   0  0  0  0  0  0  0  0  0  0  0  0
    3.0796   -2.3658   -1.2695 N   0  0  0  0  0  0  0  0  0  0  0  0
   -0.3006   -3.5983    1.4736 H   0  0  0  0  0  0  0  0  0  0  0  0
    1.4073   -3.2825    1.7601 H   0  0  0  0  0  0  0  0  0  0  0  0
    0.8450   -3.8284    0.1495 H   0  0  0  0  0  0  0  0  0  0  0  0
   -1.6590   -1.7289    1.1981 H   0  0  0  0  0  0  0  0  0  0  0  0
   -0.2366    1.9092   -0.5017 H   0  0  0  0  0  0  0  0  0  0  0  0
    3.2774    0.7240   -1.1141 H   0  0  0  0  0  0  0  0  0  0  0  0
    2.4664    2.0861   -0.3404 H   0  0  0  0  0  0  0  0  0  0  0  0
    1.6758    0.8898   -2.7887 H   0  0  0  0  0  0  0  0  0  0  0  0
    3.4640   -0.9598    1.7894 H   0  0  0  0  0  0  0  0  0  0  0  0
    7.0592   -3.6158    0.3951 H   0  0  0  0  0  0  0  0  0  0  0  0
    7.5471   -5.0448   -1.5435 H   0  0  0  0  0  0  0  0  0  0  0  0
    5.9524   -5.2352   -3.3685 H   0  0  0  0  0  0  0  0  0  0  0  0
    4.1154   -5.3560   -4.9096 H   0  0  0  0  0  0  0  0  0  0  0  0
    5.0971   -3.8573   -5.0497 H   0  0  0  0  0  0  0  0  0  0  0  0
    2.4002   -2.0794   -4.8421 H   0  0  0  0  0  0  0  0  0  0  0  0
    1.1080   -1.1553   -6.7248 H   0  0  0  0  0  0  0  0  0  0  0  0
    1.1931   -2.2406   -8.9540 H   0  0  0  0  0  0  0  0  0  0  0  0
    2.5773   -4.2705   -9.2929 H   0  0  0  0  0  0  0  0  0  0  0  0
    3.8782   -5.2131   -7.4194 H   0  0  0  0  0  0  0  0  0  0  0  0
  1  2  1  0  0  0  0
  1 30  1  0  0  0  0
  1 31  1  0  0  0  0
  1 32  1  0  0  0  0
  2  3  2  0  0  0  0
  2 10  1  0  0  0  0
  3  4  1  0  0  0  0
  3 33  1  0  0  0  0
  4  5  1  0  0  0  0
  4  6  2  0  0  0  0
  6  7  1  0  0  0  0
  6 34  1  0  0  0  0
  7  8  1  0  0  0  0
  7 10  2  0  0  0  0
  8  9  1  0  0  0  0
  8 35  1  0  0  0  0
  8 36  1  0  0  0  0
  9 37  1  0  0  0  0
 10 11  1  0  0  0  0
 11 12  2  0  0  0  0
 11 29  1  0  0  0  0
 12 13  1  0  0  0  0
 12 38  1  0  0  0  0
 13 14  2  0  0  0  0
 13 15  1  0  0  0  0
 15 16  1  0  0  0  0
 15 28  1  0  0  0  0
 16 17  2  0  0  0  0
 16 39  1  0  0  0  0
 17 18  1  0  0  0  0
 17 40  1  0  0  0  0
 18 19  2  0  0  0  0
 18 41  1  0  0  0  0
 19 20  1  0  0  0  0
 19 28  1  0  0  0  0
 20 21  1  0  0  0  0
 21 22  1  0  0  0  0
 21 42  1  0  0  0  0
 21 43  1  0  0  0  0
 22 23  2  0  0  0  0
 22 27  1  0  0  0  0
 23 24  1  0  0  0  0
 23 44  1  0  0  0  0
 24 25  2  0  0  0  0
 24 45  1  0  0  0  0
 25 26  1  0  0  0  0
 25 46  1  0  0  0  0
 26 27  2  0  0  0  0
 26 47  1  0  0  0  0
 27 48  1  0  0  0  0
 28 29  2  0  0  0  0
M  END
$$$$
