
 OpenBabel01122422393D

 41 44  0  0  0  0  0  0  0  0999 V2000
    1.0357    0.3818   -0.0096 O   0  0  0  0  0  0  0  0  0  0  0  0
    2.2462    0.1832   -0.0769 C   0  0  0  0  0  0  0  0  0  0  0  0
    2.8872   -0.4370   -1.1392 N   0  0  0  0  0  0  0  0  0  0  0  0
    2.2535   -0.9105   -2.2650 C   0  0  0  0  0  0  0  0  0  0  0  0
    2.9376   -1.5519   -3.2267 C   0  0  0  0  0  0  0  0  0  0  0  0
    2.2203   -2.1034   -4.3848 C   0  0  0  0  0  0  0  0  0  0  0  0
    2.8805   -2.8541   -5.3633 C   0  0  0  0  0  0  0  0  0  0  0  0
    2.1612   -3.4075   -6.4290 C   0  0  0  0  0  0  0  0  0  0  0  0
    0.7843   -3.2032   -6.5354 C   0  0  0  0  0  0  0  0  0  0  0  0
    0.1182   -2.4468   -5.5741 C   0  0  0  0  0  0  0  0  0  0  0  0
    0.8362   -1.9087   -4.5008 C   0  0  0  0  0  0  0  0  0  0  0  0
    0.1301   -1.1526   -3.4426 C   0  0  0  0  0  0  0  0  0  0  0  0
   -1.0740   -0.9394   -3.5020 O   0  0  0  0  0  0  0  0  0  0  0  0
    0.9050   -0.7285   -2.3926 N   0  0  0  0  0  0  0  0  0  0  0  0
    3.0893    0.5985    1.0666 C   0  0  0  0  0  0  0  0  0  0  0  0
    2.5252    0.5541    2.3424 C   0  0  0  0  0  0  0  0  0  0  0  0
    3.2919    0.9764    3.4085 C   0  0  0  0  0  0  0  0  0  0  0  0
    4.5505    1.4442    3.2793 N   0  0  0  0  0  0  0  0  0  0  0  0
    5.0686    1.5195    2.0225 C   0  0  0  0  0  0  0  0  0  0  0  0
    6.3584    2.1085    1.8642 N   0  0  0  0  0  0  0  0  0  0  0  0
    7.1657    2.5824    2.8724 C   0  0  0  0  0  0  0  0  0  0  0  0
    8.2649    3.1471    2.2752 C   0  0  0  0  0  0  0  0  0  0  0  0
    8.0652    2.9723    0.8822 C   0  0  0  0  0  0  0  0  0  0  0  0
    8.9689    3.4603   -0.2198 C   0  0  0  0  0  0  0  0  0  0  0  0
   10.0399    4.1440    0.2693 F   0  0  0  0  0  0  0  0  0  0  0  0
    9.4697    2.4418   -0.9676 F   0  0  0  0  0  0  0  0  0  0  0  0
    8.3310    4.3047   -1.0730 F   0  0  0  0  0  0  0  0  0  0  0  0
    6.9218    2.2979    0.6398 N   0  0  0  0  0  0  0  0  0  0  0  0
    4.3791    1.0946    0.8910 C   0  0  0  0  0  0  0  0  0  0  0  0
    3.8783   -0.6293   -1.0597 H   0  0  0  0  0  0  0  0  0  0  0  0
    4.0093   -1.7040   -3.1747 H   0  0  0  0  0  0  0  0  0  0  0  0
    3.9512   -3.0324   -5.3016 H   0  0  0  0  0  0  0  0  0  0  0  0
    2.6747   -4.0084   -7.1761 H   0  0  0  0  0  0  0  0  0  0  0  0
    0.2276   -3.6398   -7.3611 H   0  0  0  0  0  0  0  0  0  0  0  0
   -0.9557   -2.2895   -5.6475 H   0  0  0  0  0  0  0  0  0  0  0  0
    0.4215   -0.2373   -1.6410 H   0  0  0  0  0  0  0  0  0  0  0  0
    1.5075    0.2074    2.4968 H   0  0  0  0  0  0  0  0  0  0  0  0
    2.8978    0.9633    4.4212 H   0  0  0  0  0  0  0  0  0  0  0  0
    6.8687    2.4930    3.9087 H   0  0  0  0  0  0  0  0  0  0  0  0
    9.0929    3.6380    2.7692 H   0  0  0  0  0  0  0  0  0  0  0  0
    4.8130    1.1970   -0.0980 H   0  0  0  0  0  0  0  0  0  0  0  0
  1  2  2  0  0  0  0
  2  3  1  0  0  0  0
  2 15  1  0  0  0  0
  3  4  1  0  0  0  0
  3 30  1  0  0  0  0
  4  5  2  0  0  0  0
  4 14  1  0  0  0  0
  5  6  1  0  0  0  0
  5 31  1  0  0  0  0
  6  7  2  0  0  0  0
  6 11  1  0  0  0  0
  7  8  1  0  0  0  0
  7 32  1  0  0  0  0
  8  9  2  0  0  0  0
  8 33  1  0  0  0  0
  9 10  1  0  0  0  0
  9 34  1  0  0  0  0
 10 11  2  0  0  0  0
 10 35  1  0  0  0  0
 11 12  1  0  0  0  0
 12 13  2  0  0  0  0
 12 14  1  0  0  0  0
 14 36  1  0  0  0  0
 15 16  2  0  0  0  0
 15 29  1  0  0  0  0
 16 17  1  0  0  0  0
 16 37  1  0  0  0  0
 17 18  2  0  0  0  0
 17 38  1  0  0  0  0
 18 19  1  0  0  0  0
 19 20  1  0  0  0  0
 19 29  2  0  0  0  0
 20 21  1  0  0  0  0
 20 28  1  0  0  0  0
 21 22  2  0  0  0  0
 21 39  1  0  0  0  0
 22 23  1  0  0  0  0
 22 40  1  0  0  0  0
 23 24  1  0  0  0  0
 23 28  2  0  0  0  0
 24 25  1  0  0  0  0
 24 26  1  0  0  0  0
 24 27  1  0  0  0  0
 29 41  1  0  0  0  0
M  END
$$$$
