
 OpenBabel01122422393D

 48 51  0  0  0  0  0  0  0  0999 V2000
    1.1078    0.0489    0.3902 O   0  0  0  0  0  0  0  0  0  0  0  0
    2.2737   -0.0130    0.0027 C   0  0  0  0  0  0  0  0  0  0  0  0
    2.8282    0.7301   -1.0040 N   0  0  0  0  0  0  0  0  0  0  0  0
    2.2144    1.6837   -1.8247 C   0  0  0  0  0  0  0  0  0  0  0  0
    1.0027    2.3054   -1.5233 C   0  0  0  0  0  0  0  0  0  0  0  0
    0.4293    3.2127   -2.4229 C   0  0  0  0  0  0  0  0  0  0  0  0
    1.0359    3.4579   -3.6584 C   0  0  0  0  0  0  0  0  0  0  0  0
    0.4020    4.2669   -4.6476 N   0  0  0  0  0  0  0  0  0  0  0  0
    0.2354    3.7700   -5.9374 C   0  0  0  0  0  0  0  0  0  0  0  0
   -0.3206    4.4982   -6.9119 C   0  0  0  0  0  0  0  0  0  0  0  0
   -0.7108    5.8567   -6.6534 C   0  0  0  0  0  0  0  0  0  0  0  0
   -0.5926    6.3714   -5.4238 C   0  0  0  0  0  0  0  0  0  0  0  0
   -0.0462    5.5532   -4.2998 C   0  0  0  0  0  0  0  0  0  0  0  0
    0.0205    6.0769   -3.1894 O   0  0  0  0  0  0  0  0  0  0  0  0
    2.2649    2.8519   -3.9470 C   0  0  0  0  0  0  0  0  0  0  0  0
    2.8670    2.0009   -3.0202 C   0  0  0  0  0  0  0  0  0  0  0  0
    3.0997   -0.9519    0.5712 N   0  0  0  0  0  0  0  0  0  0  0  0
    4.4317   -1.1541    0.3198 C   0  0  0  0  0  0  0  0  0  0  0  0
    5.2161   -2.1391    0.8757 C   0  0  0  0  0  0  0  0  0  0  0  0
    6.4662   -1.9185    0.3595 N   0  0  0  0  0  0  0  0  0  0  0  0
    7.6520   -2.7276    0.5792 C   0  0  0  0  0  0  0  0  0  0  0  0
    8.4359   -2.2487    1.7720 C   0  0  0  0  0  0  0  0  0  0  0  0
    8.1814   -2.7763    3.0468 C   0  0  0  0  0  0  0  0  0  0  0  0
    8.8847   -2.3116    4.1588 C   0  0  0  0  0  0  0  0  0  0  0  0
    9.8480   -1.3163    4.0098 C   0  0  0  0  0  0  0  0  0  0  0  0
   10.1139   -0.7878    2.7484 C   0  0  0  0  0  0  0  0  0  0  0  0
    9.4117   -1.2498    1.6342 C   0  0  0  0  0  0  0  0  0  0  0  0
    6.3872   -0.8337   -0.4674 C   0  0  0  0  0  0  0  0  0  0  0  0
    5.1612   -0.3760   -0.5400 N   0  0  0  0  0  0  0  0  0  0  0  0
    3.7766    0.4471   -1.2438 H   0  0  0  0  0  0  0  0  0  0  0  0
    0.4883    2.1089   -0.5870 H   0  0  0  0  0  0  0  0  0  0  0  0
   -0.5193    3.6787   -2.1677 H   0  0  0  0  0  0  0  0  0  0  0  0
    0.5290    2.7382   -6.1105 H   0  0  0  0  0  0  0  0  0  0  0  0
   -0.4820    4.0821   -7.9008 H   0  0  0  0  0  0  0  0  0  0  0  0
   -1.0910    6.4519   -7.4765 H   0  0  0  0  0  0  0  0  0  0  0  0
   -0.8598    7.3931   -5.1883 H   0  0  0  0  0  0  0  0  0  0  0  0
    2.7785    3.0644   -4.8807 H   0  0  0  0  0  0  0  0  0  0  0  0
    3.8295    1.5566   -3.2604 H   0  0  0  0  0  0  0  0  0  0  0  0
    2.6477   -1.5378    1.2581 H   0  0  0  0  0  0  0  0  0  0  0  0
    5.0043   -2.9384    1.5680 H   0  0  0  0  0  0  0  0  0  0  0  0
    8.2613   -2.6893   -0.3317 H   0  0  0  0  0  0  0  0  0  0  0  0
    7.3313   -3.7680    0.7066 H   0  0  0  0  0  0  0  0  0  0  0  0
    7.4292   -3.5499    3.1852 H   0  0  0  0  0  0  0  0  0  0  0  0
    8.6766   -2.7217    5.1438 H   0  0  0  0  0  0  0  0  0  0  0  0
   10.3887   -0.9489    4.8782 H   0  0  0  0  0  0  0  0  0  0  0  0
   10.8648   -0.0099    2.6344 H   0  0  0  0  0  0  0  0  0  0  0  0
    9.6312   -0.8183    0.6599 H   0  0  0  0  0  0  0  0  0  0  0  0
    7.2455   -0.4262   -0.9887 H   0  0  0  0  0  0  0  0  0  0  0  0
  1  2  2  0  0  0  0
  2  3  1  0  0  0  0
  2 17  1  0  0  0  0
  3  4  1  0  0  0  0
  3 30  1  0  0  0  0
  4  5  2  0  0  0  0
  4 16  1  0  0  0  0
  5  6  1  0  0  0  0
  5 31  1  0  0  0  0
  6  7  2  0  0  0  0
  6 32  1  0  0  0  0
  7  8  1  0  0  0  0
  7 15  1  0  0  0  0
  8  9  1  0  0  0  0
  8 13  1  0  0  0  0
  9 10  2  0  0  0  0
  9 33  1  0  0  0  0
 10 11  1  0  0  0  0
 10 34  1  0  0  0  0
 11 12  2  0  0  0  0
 11 35  1  0  0  0  0
 12 13  1  0  0  0  0
 12 36  1  0  0  0  0
 13 14  2  0  0  0  0
 15 16  2  0  0  0  0
 15 37  1  0  0  0  0
 16 38  1  0  0  0  0
 17 18  1  0  0  0  0
 17 39  1  0  0  0  0
 18 19  2  0  0  0  0
 18 29  1  0  0  0  0
 19 20  1  0  0  0  0
 19 40  1  0  0  0  0
 20 21  1  0  0  0  0
 20 28  1  0  0  0  0
 21 22  1  0  0  0  0
 21 41  1  0  0  0  0
 21 42  1  0  0  0  0
 22 23  2  0  0  0  0
 22 27  1  0  0  0  0
 23 24  1  0  0  0  0
 23 43  1  0  0  0  0
 24 25  2  0  0  0  0
 24 44  1  0  0  0  0
 25 26  1  0  0  0  0
 25 45  1  0  0  0  0
 26 27  2  0  0  0  0
 26 46  1  0  0  0  0
 27 47  1  0  0  0  0
 28 29  2  0  0  0  0
 28 48  1  0  0  0  0
M  END
$$$$
