
 OpenBabel01122422393D

 45 48  0  0  0  0  0  0  0  0999 V2000
    5.7091   -1.3410   -0.3927 C   0  0  0  0  0  0  0  0  0  0  0  0
    4.4472   -0.5964   -0.1682 C   0  0  0  0  0  0  0  0  0  0  0  0
    4.3238    0.7773   -0.1637 C   0  0  0  0  0  0  0  0  0  0  0  0
    3.0081    1.0714    0.0981 N   0  0  0  0  0  0  0  0  0  0  0  0
    2.4090    2.3560    0.2018 C   0  0  0  0  0  0  0  0  0  0  0  0
    3.1450    3.5172   -0.0742 C   0  0  0  0  0  0  0  0  0  0  0  0
    2.5428    4.7716    0.0398 C   0  0  0  0  0  0  0  0  0  0  0  0
    1.2100    4.8751    0.4327 C   0  0  0  0  0  0  0  0  0  0  0  0
    0.4714    3.7247    0.7059 C   0  0  0  0  0  0  0  0  0  0  0  0
    1.0644    2.4658    0.5866 C   0  0  0  0  0  0  0  0  0  0  0  0
    2.2849   -0.0538    0.2609 N   0  0  0  0  0  0  0  0  0  0  0  0
    3.1251   -1.0681    0.0801 C   0  0  0  0  0  0  0  0  0  0  0  0
    2.7437   -2.3973    0.1165 N   0  0  0  0  0  0  0  0  0  0  0  0
    1.4487   -2.8380    0.3495 C   0  0  0  0  0  0  0  0  0  0  0  0
    0.4670   -2.1648    0.6308 O   0  0  0  0  0  0  0  0  0  0  0  0
    1.2502   -4.3571    0.2171 C   0  0  0  0  0  0  0  0  0  0  0  0
    0.0526   -4.8358    0.4534 N   0  0  0  0  0  0  0  0  0  0  0  0
   -0.1553   -6.1918    0.3252 N   0  0  0  0  0  0  0  0  0  0  0  0
   -1.5136   -6.6374    0.4711 C   0  0  0  0  0  0  0  0  0  0  0  0
   -2.5913   -5.7881    0.1603 C   0  0  0  0  0  0  0  0  0  0  0  0
   -3.9084   -6.2685    0.1337 C   0  0  0  0  0  0  0  0  0  0  0  0
   -4.1813   -7.5979    0.4518 C   0  0  0  0  0  0  0  0  0  0  0  0
   -3.1426   -8.4373    0.8376 C   0  0  0  0  0  0  0  0  0  0  0  0
   -1.8338   -7.9553    0.8552 C   0  0  0  0  0  0  0  0  0  0  0  0
   -0.8727   -8.8027    1.2586 F   0  0  0  0  0  0  0  0  0  0  0  0
    0.8216   -7.0385   -0.1585 C   0  0  0  0  0  0  0  0  0  0  0  0
    2.0736   -6.6827   -0.4470 C   0  0  0  0  0  0  0  0  0  0  0  0
    2.3799   -5.2740   -0.2041 C   0  0  0  0  0  0  0  0  0  0  0  0
    3.5149   -4.8318   -0.3556 O   0  0  0  0  0  0  0  0  0  0  0  0
    6.5702   -0.6640   -0.3279 H   0  0  0  0  0  0  0  0  0  0  0  0
    5.7198   -1.7959   -1.3874 H   0  0  0  0  0  0  0  0  0  0  0  0
    5.8480   -2.1211    0.3603 H   0  0  0  0  0  0  0  0  0  0  0  0
    5.0676    1.5445   -0.3093 H   0  0  0  0  0  0  0  0  0  0  0  0
    4.1817    3.4828   -0.3911 H   0  0  0  0  0  0  0  0  0  0  0  0
    3.1164    5.6682   -0.1797 H   0  0  0  0  0  0  0  0  0  0  0  0
    0.7459    5.8536    0.5247 H   0  0  0  0  0  0  0  0  0  0  0  0
   -0.5679    3.8049    1.0141 H   0  0  0  0  0  0  0  0  0  0  0  0
    0.4703    1.5788    0.8064 H   0  0  0  0  0  0  0  0  0  0  0  0
    3.4689   -3.0778   -0.0873 H   0  0  0  0  0  0  0  0  0  0  0  0
   -2.4071   -4.7509   -0.1139 H   0  0  0  0  0  0  0  0  0  0  0  0
   -4.7190   -5.6036   -0.1560 H   0  0  0  0  0  0  0  0  0  0  0  0
   -5.1995   -7.9756    0.4052 H   0  0  0  0  0  0  0  0  0  0  0  0
   -3.3345   -9.4693    1.1141 H   0  0  0  0  0  0  0  0  0  0  0  0
    0.5102   -8.0599   -0.3449 H   0  0  0  0  0  0  0  0  0  0  0  0
    2.8232   -7.3481   -0.8413 H   0  0  0  0  0  0  0  0  0  0  0  0
  1  2  1  0  0  0  0
  1 30  1  0  0  0  0
  1 31  1  0  0  0  0
  1 32  1  0  0  0  0
  2  3  2  0  0  0  0
  2 12  1  0  0  0  0
  3  4  1  0  0  0  0
  3 33  1  0  0  0  0
  4  5  1  0  0  0  0
  4 11  1  0  0  0  0
  5  6  2  0  0  0  0
  5 10  1  0  0  0  0
  6  7  1  0  0  0  0
  6 34  1  0  0  0  0
  7  8  2  0  0  0  0
  7 35  1  0  0  0  0
  8  9  1  0  0  0  0
  8 36  1  0  0  0  0
  9 10  2  0  0  0  0
  9 37  1  0  0  0  0
 10 38  1  0  0  0  0
 11 12  2  0  0  0  0
 12 13  1  0  0  0  0
 13 14  1  0  0  0  0
 13 39  1  0  0  0  0
 14 15  2  0  0  0  0
 14 16  1  0  0  0  0
 16 17  2  0  0  0  0
 16 28  1  0  0  0  0
 17 18  1  0  0  0  0
 18 19  1  0  0  0  0
 18 26  1  0  0  0  0
 19 20  2  0  0  0  0
 19 24  1  0  0  0  0
 20 21  1  0  0  0  0
 20 40  1  0  0  0  0
 21 22  2  0  0  0  0
 21 41  1  0  0  0  0
 22 23  1  0  0  0  0
 22 42  1  0  0  0  0
 23 24  2  0  0  0  0
 23 43  1  0  0  0  0
 24 25  1  0  0  0  0
 26 27  2  0  0  0  0
 26 44  1  0  0  0  0
 27 28  1  0  0  0  0
 27 45  1  0  0  0  0
 28 29  2  0  0  0  0
M  END
$$$$
