
 OpenBabel01122422393D

 49 52  0  0  0  0  0  0  0  0999 V2000
    1.3790    0.1533    0.6705 C   0  0  0  0  0  0  0  0  0  0  0  0
    2.4681   -0.0347   -0.2307 O   0  0  0  0  0  0  0  0  0  0  0  0
    3.0798    1.0920   -0.7282 C   0  0  0  0  0  0  0  0  0  0  0  0
    2.6885    2.3947   -0.3851 C   0  0  0  0  0  0  0  0  0  0  0  0
    3.3682    3.4989   -0.8975 C   0  0  0  0  0  0  0  0  0  0  0  0
    4.5027    3.3128   -1.6803 C   0  0  0  0  0  0  0  0  0  0  0  0
    4.9439    2.0243   -1.9999 C   0  0  0  0  0  0  0  0  0  0  0  0
    6.1461    2.0201   -2.6685 O   0  0  0  0  0  0  0  0  0  0  0  0
    7.0400    0.9329   -2.3879 C   0  0  0  0  0  0  0  0  0  0  0  0
    8.4173    1.3921   -1.9698 C   0  0  0  0  0  0  0  0  0  0  0  0
    9.1761    0.5662   -1.1228 C   0  0  0  0  0  0  0  0  0  0  0  0
   10.4662    0.9297   -0.7421 C   0  0  0  0  0  0  0  0  0  0  0  0
   11.0179    2.1138   -1.2226 C   0  0  0  0  0  0  0  0  0  0  0  0
   10.2840    2.9311   -2.0801 C   0  0  0  0  0  0  0  0  0  0  0  0
    8.9884    2.5720   -2.4556 C   0  0  0  0  0  0  0  0  0  0  0  0
    4.1639    0.9102   -1.6193 C   0  0  0  0  0  0  0  0  0  0  0  0
    4.4420   -0.4176   -2.2553 C   0  0  0  0  0  0  0  0  0  0  0  0
    4.7662   -0.4622   -3.4370 O   0  0  0  0  0  0  0  0  0  0  0  0
    4.3584   -1.5168   -1.4354 N   0  0  0  0  0  0  0  0  0  0  0  0
    5.0032   -2.7623   -1.6067 C   0  0  0  0  0  0  0  0  0  0  0  0
    6.0085   -3.0122   -2.5445 C   0  0  0  0  0  0  0  0  0  0  0  0
    6.7152   -4.2250   -2.5193 C   0  0  0  0  0  0  0  0  0  0  0  0
    6.4594   -5.1726   -1.5254 C   0  0  0  0  0  0  0  0  0  0  0  0
    5.4779   -4.9052   -0.5731 C   0  0  0  0  0  0  0  0  0  0  0  0
    4.7151   -3.7397   -0.6465 C   0  0  0  0  0  0  0  0  0  0  0  0
    3.6181   -3.5768    0.2363 N   0  0  0  0  0  0  0  0  0  0  0  0
    3.7199   -4.2781    1.4047 C   0  0  0  0  0  0  0  0  0  0  0  0
    4.4743   -5.2914    1.6492 N   0  0  0  0  0  0  0  0  0  0  0  0
    5.2495   -5.7721    0.6083 C   0  0  0  0  0  0  0  0  0  0  0  0
    5.7526   -6.8839    0.6216 O   0  0  0  0  0  0  0  0  0  0  0  0
    1.0578   -0.8331    1.0187 H   0  0  0  0  0  0  0  0  0  0  0  0
    0.5339    0.6203    0.1556 H   0  0  0  0  0  0  0  0  0  0  0  0
    1.6758    0.7301    1.5539 H   0  0  0  0  0  0  0  0  0  0  0  0
    1.8406    2.5931    0.2636 H   0  0  0  0  0  0  0  0  0  0  0  0
    3.0282    4.5058   -0.6660 H   0  0  0  0  0  0  0  0  0  0  0  0
    5.0567    4.1774   -2.0403 H   0  0  0  0  0  0  0  0  0  0  0  0
    7.1452    0.3352   -3.3001 H   0  0  0  0  0  0  0  0  0  0  0  0
    6.6735    0.2994   -1.5748 H   0  0  0  0  0  0  0  0  0  0  0  0
    8.7652   -0.3705   -0.7515 H   0  0  0  0  0  0  0  0  0  0  0  0
   11.0375    0.2852   -0.0827 H   0  0  0  0  0  0  0  0  0  0  0  0
   12.0270    2.3956   -0.9316 H   0  0  0  0  0  0  0  0  0  0  0  0
   10.7233    3.8479   -2.4618 H   0  0  0  0  0  0  0  0  0  0  0  0
    8.4315    3.2118   -3.1375 H   0  0  0  0  0  0  0  0  0  0  0  0
    3.8404   -1.4028   -0.5670 H   0  0  0  0  0  0  0  0  0  0  0  0
    6.2980   -2.2634   -3.2774 H   0  0  0  0  0  0  0  0  0  0  0  0
    7.5003   -4.4073   -3.2510 H   0  0  0  0  0  0  0  0  0  0  0  0
    7.0381   -6.0930   -1.4787 H   0  0  0  0  0  0  0  0  0  0  0  0
    2.7717   -3.8473   -0.2753 H   0  0  0  0  0  0  0  0  0  0  0  0
    3.0643   -3.8602    2.1862 H   0  0  0  0  0  0  0  0  0  0  0  0
  1  2  1  0  0  0  0
  1 31  1  0  0  0  0
  1 32  1  0  0  0  0
  1 33  1  0  0  0  0
  2  3  1  0  0  0  0
  3  4  2  0  0  0  0
  3 16  1  0  0  0  0
  4  5  1  0  0  0  0
  4 34  1  0  0  0  0
  5  6  2  0  0  0  0
  5 35  1  0  0  0  0
  6  7  1  0  0  0  0
  6 36  1  0  0  0  0
  7  8  1  0  0  0  0
  7 16  2  0  0  0  0
  8  9  1  0  0  0  0
  9 10  1  0  0  0  0
  9 37  1  0  0  0  0
  9 38  1  0  0  0  0
 10 11  2  0  0  0  0
 10 15  1  0  0  0  0
 11 12  1  0  0  0  0
 11 39  1  0  0  0  0
 12 13  2  0  0  0  0
 12 40  1  0  0  0  0
 13 14  1  0  0  0  0
 13 41  1  0  0  0  0
 14 15  2  0  0  0  0
 14 42  1  0  0  0  0
 15 43  1  0  0  0  0
 16 17  1  0  0  0  0
 17 18  2  0  0  0  0
 17 19  1  0  0  0  0
 19 20  1  0  0  0  0
 19 44  1  0  0  0  0
 20 21  2  0  0  0  0
 20 25  1  0  0  0  0
 21 22  1  0  0  0  0
 21 45  1  0  0  0  0
 22 23  2  0  0  0  0
 22 46  1  0  0  0  0
 23 24  1  0  0  0  0
 23 47  1  0  0  0  0
 24 25  2  0  0  0  0
 24 29  1  0  0  0  0
 25 26  1  0  0  0  0
 26 27  1  0  0  0  0
 26 48  1  0  0  0  0
 27 28  2  0  0  0  0
 27 49  1  0  0  0  0
 28 29  1  0  0  0  0
 29 30  2  0  0  0  0
M  END
$$$$
