
 OpenBabel01122422393D

 45 48  0  0  0  0  0  0  0  0999 V2000
    1.1353   -0.3217    0.1654 O   0  0  0  0  0  0  0  0  0  0  0  0
    2.3184   -0.0887   -0.0572 C   0  0  0  0  0  0  0  0  0  0  0  0
    3.0091   -0.6663   -1.1001 N   0  0  0  0  0  0  0  0  0  0  0  0
    2.3366   -1.5968   -1.9930 C   0  0  0  0  0  0  0  0  0  0  0  0
    1.2510   -0.9212   -2.8306 C   0  0  0  0  0  0  0  0  0  0  0  0
    0.5857   -1.8564   -3.7044 N   0  0  0  0  0  0  0  0  0  0  0  0
   -0.5585   -2.5547   -3.4229 C   0  0  0  0  0  0  0  0  0  0  0  0
   -0.9218   -3.3196   -4.4279 N   0  0  0  0  0  0  0  0  0  0  0  0
    0.0180   -3.0934   -5.4040 C   0  0  0  0  0  0  0  0  0  0  0  0
    0.1537   -3.6101   -6.6969 C   0  0  0  0  0  0  0  0  0  0  0  0
    1.2392   -3.1601   -7.4512 C   0  0  0  0  0  0  0  0  0  0  0  0
    2.1256   -2.2418   -6.8918 C   0  0  0  0  0  0  0  0  0  0  0  0
    2.0473   -1.7205   -5.6425 N   0  0  0  0  0  0  0  0  0  0  0  0
    0.9749   -2.1817   -4.9701 C   0  0  0  0  0  0  0  0  0  0  0  0
    3.0610    0.8383    0.8274 C   0  0  0  0  0  0  0  0  0  0  0  0
    2.5528    1.0458    2.1129 C   0  0  0  0  0  0  0  0  0  0  0  0
    3.1799    1.9386    2.9744 C   0  0  0  0  0  0  0  0  0  0  0  0
    2.6131    2.1406    4.1716 F   0  0  0  0  0  0  0  0  0  0  0  0
    4.3546    2.5950    2.6030 C   0  0  0  0  0  0  0  0  0  0  0  0
    5.0714    3.4572    3.4002 O   0  0  0  0  0  0  0  0  0  0  0  0
    5.1254    3.2428    4.7594 C   0  0  0  0  0  0  0  0  0  0  0  0
    5.1425    1.9780    5.3553 C   0  0  0  0  0  0  0  0  0  0  0  0
    5.1026    1.8601    6.7447 C   0  0  0  0  0  0  0  0  0  0  0  0
    5.1215    3.0028    7.5420 C   0  0  0  0  0  0  0  0  0  0  0  0
    5.1990    4.2636    6.9513 C   0  0  0  0  0  0  0  0  0  0  0  0
    5.2016    4.3838    5.5604 C   0  0  0  0  0  0  0  0  0  0  0  0
    4.8190    2.4182    1.2984 C   0  0  0  0  0  0  0  0  0  0  0  0
    5.8954    3.0950    0.8709 F   0  0  0  0  0  0  0  0  0  0  0  0
    4.1859    1.5514    0.4062 C   0  0  0  0  0  0  0  0  0  0  0  0
    4.0201   -0.6297   -1.1242 H   0  0  0  0  0  0  0  0  0  0  0  0
    1.9078   -2.4028   -1.3840 H   0  0  0  0  0  0  0  0  0  0  0  0
    3.1042   -2.0424   -2.6356 H   0  0  0  0  0  0  0  0  0  0  0  0
    1.6810   -0.1212   -3.4446 H   0  0  0  0  0  0  0  0  0  0  0  0
    0.4793   -0.4560   -2.2083 H   0  0  0  0  0  0  0  0  0  0  0  0
   -1.0767   -2.4671   -2.4761 H   0  0  0  0  0  0  0  0  0  0  0  0
   -0.5637   -4.3218   -7.0861 H   0  0  0  0  0  0  0  0  0  0  0  0
    1.3903   -3.5204   -8.4638 H   0  0  0  0  0  0  0  0  0  0  0  0
    2.9710   -1.8823   -7.4750 H   0  0  0  0  0  0  0  0  0  0  0  0
    1.6610    0.5239    2.4529 H   0  0  0  0  0  0  0  0  0  0  0  0
    5.1419    1.0741    4.7549 H   0  0  0  0  0  0  0  0  0  0  0  0
    5.0431    0.8760    7.2019 H   0  0  0  0  0  0  0  0  0  0  0  0
    5.0794    2.9094    8.6239 H   0  0  0  0  0  0  0  0  0  0  0  0
    5.2413    5.1534    7.5739 H   0  0  0  0  0  0  0  0  0  0  0  0
    5.2453    5.3689    5.1033 H   0  0  0  0  0  0  0  0  0  0  0  0
    4.5698    1.4781   -0.6057 H   0  0  0  0  0  0  0  0  0  0  0  0
  1  2  2  0  0  0  0
  2  3  1  0  0  0  0
  2 15  1  0  0  0  0
  3  4  1  0  0  0  0
  3 30  1  0  0  0  0
  4  5  1  0  0  0  0
  4 31  1  0  0  0  0
  4 32  1  0  0  0  0
  5  6  1  0  0  0  0
  5 33  1  0  0  0  0
  5 34  1  0  0  0  0
  6  7  1  0  0  0  0
  6 14  1  0  0  0  0
  7  8  2  0  0  0  0
  7 35  1  0  0  0  0
  8  9  1  0  0  0  0
  9 10  2  0  0  0  0
  9 14  1  0  0  0  0
 10 11  1  0  0  0  0
 10 36  1  0  0  0  0
 11 12  2  0  0  0  0
 11 37  1  0  0  0  0
 12 13  1  0  0  0  0
 12 38  1  0  0  0  0
 13 14  2  0  0  0  0
 15 16  2  0  0  0  0
 15 29  1  0  0  0  0
 16 17  1  0  0  0  0
 16 39  1  0  0  0  0
 17 18  1  0  0  0  0
 17 19  2  0  0  0  0
 19 20  1  0  0  0  0
 19 27  1  0  0  0  0
 20 21  1  0  0  0  0
 21 22  2  0  0  0  0
 21 26  1  0  0  0  0
 22 23  1  0  0  0  0
 22 40  1  0  0  0  0
 23 24  2  0  0  0  0
 23 41  1  0  0  0  0
 24 25  1  0  0  0  0
 24 42  1  0  0  0  0
 25 26  2  0  0  0  0
 25 43  1  0  0  0  0
 26 44  1  0  0  0  0
 27 28  1  0  0  0  0
 27 29  2  0  0  0  0
 29 45  1  0  0  0  0
M  END
$$$$
