
 OpenBabel01122422393D

 48 51  0  0  0  0  0  0  0  0999 V2000
    1.0049   -0.0852    0.0234 O   0  0  0  0  0  0  0  0  0  0  0  0
    2.2288   -0.0601    0.0941 C   0  0  0  0  0  0  0  0  0  0  0  0
    2.9250    0.8589    0.8537 N   0  0  0  0  0  0  0  0  0  0  0  0
    2.2071    1.8601    1.6014 C   0  0  0  0  0  0  0  0  0  0  0  0
    3.1280    2.7921    2.3443 C   0  0  0  0  0  0  0  0  0  0  0  0
    3.6273    3.9539    1.7332 C   0  0  0  0  0  0  0  0  0  0  0  0
    4.4394    4.8510    2.4438 C   0  0  0  0  0  0  0  0  0  0  0  0
    4.7755    4.5836    3.7756 C   0  0  0  0  0  0  0  0  0  0  0  0
    5.5896    5.4967    4.6308 C   0  0  0  0  0  0  0  0  0  0  0  0
    5.3880    5.4581    5.8420 O   0  0  0  0  0  0  0  0  0  0  0  0
    6.5094    6.3158    3.9965 N   0  0  0  0  0  0  0  0  0  0  0  0
    7.4172    7.1875    4.6506 C   0  0  0  0  0  0  0  0  0  0  0  0
    7.6871    7.1431    6.0175 C   0  0  0  0  0  0  0  0  0  0  0  0
    8.5710    8.0576    6.5893 C   0  0  0  0  0  0  0  0  0  0  0  0
    9.1713    8.9937    5.7682 C   0  0  0  0  0  0  0  0  0  0  0  0
    8.9684    9.0560    4.4349 N   0  0  0  0  0  0  0  0  0  0  0  0
    8.1042    8.1496    3.9112 C   0  0  0  0  0  0  0  0  0  0  0  0
    4.2865    3.4154    4.3801 C   0  0  0  0  0  0  0  0  0  0  0  0
    3.4811    2.5230    3.6707 C   0  0  0  0  0  0  0  0  0  0  0  0
    3.0304   -1.0267   -0.6860 C   0  0  0  0  0  0  0  0  0  0  0  0
    2.4976   -1.5596   -1.8534 C   0  0  0  0  0  0  0  0  0  0  0  0
    3.1530   -2.4432   -2.6464 N   0  0  0  0  0  0  0  0  0  0  0  0
    4.3878   -2.8249   -2.2363 C   0  0  0  0  0  0  0  0  0  0  0  0
    4.9980   -2.3789   -1.0669 C   0  0  0  0  0  0  0  0  0  0  0  0
    6.3137   -2.8560   -0.6607 C   0  0  0  0  0  0  0  0  0  0  0  0
    7.1146   -2.1135    0.1236 N   0  0  0  0  0  0  0  0  0  0  0  0
    8.2165   -2.8625    0.2865 N   0  0  0  0  0  0  0  0  0  0  0  0
    8.1551   -4.0650   -0.3455 C   0  0  0  0  0  0  0  0  0  0  0  0
    6.9331   -4.0956   -0.9718 C   0  0  0  0  0  0  0  0  0  0  0  0
    4.2957   -1.4563   -0.2832 C   0  0  0  0  0  0  0  0  0  0  0  0
    3.9283    0.9489    0.7596 H   0  0  0  0  0  0  0  0  0  0  0  0
    1.5304    1.3506    2.2985 H   0  0  0  0  0  0  0  0  0  0  0  0
    1.5718    2.4277    0.9085 H   0  0  0  0  0  0  0  0  0  0  0  0
    3.3551    4.1830    0.7036 H   0  0  0  0  0  0  0  0  0  0  0  0
    4.7516    5.7655    1.9498 H   0  0  0  0  0  0  0  0  0  0  0  0
    6.5286    6.3291    2.9858 H   0  0  0  0  0  0  0  0  0  0  0  0
    7.2409    6.3971    6.6667 H   0  0  0  0  0  0  0  0  0  0  0  0
    8.7777    8.0325    7.6535 H   0  0  0  0  0  0  0  0  0  0  0  0
    9.8517    9.7369    6.1746 H   0  0  0  0  0  0  0  0  0  0  0  0
    7.9645    8.2481    2.8390 H   0  0  0  0  0  0  0  0  0  0  0  0
    4.5200    3.2043    5.4232 H   0  0  0  0  0  0  0  0  0  0  0  0
    3.1093    1.6319    4.1734 H   0  0  0  0  0  0  0  0  0  0  0  0
    1.5048   -1.2808   -2.2009 H   0  0  0  0  0  0  0  0  0  0  0  0
    4.8832   -3.5204   -2.9087 H   0  0  0  0  0  0  0  0  0  0  0  0
    8.9751   -2.4851    0.8478 H   0  0  0  0  0  0  0  0  0  0  0  0
    8.9644   -4.7768   -0.2923 H   0  0  0  0  0  0  0  0  0  0  0  0
    6.5353   -4.9117   -1.5607 H   0  0  0  0  0  0  0  0  0  0  0  0
    4.7295   -1.1118    0.6514 H   0  0  0  0  0  0  0  0  0  0  0  0
  1  2  2  0  0  0  0
  2  3  1  0  0  0  0
  2 20  1  0  0  0  0
  3  4  1  0  0  0  0
  3 31  1  0  0  0  0
  4  5  1  0  0  0  0
  4 32  1  0  0  0  0
  4 33  1  0  0  0  0
  5  6  2  0  0  0  0
  5 19  1  0  0  0  0
  6  7  1  0  0  0  0
  6 34  1  0  0  0  0
  7  8  2  0  0  0  0
  7 35  1  0  0  0  0
  8  9  1  0  0  0  0
  8 18  1  0  0  0  0
  9 10  2  0  0  0  0
  9 11  1  0  0  0  0
 11 12  1  0  0  0  0
 11 36  1  0  0  0  0
 12 13  2  0  0  0  0
 12 17  1  0  0  0  0
 13 14  1  0  0  0  0
 13 37  1  0  0  0  0
 14 15  2  0  0  0  0
 14 38  1  0  0  0  0
 15 16  1  0  0  0  0
 15 39  1  0  0  0  0
 16 17  2  0  0  0  0
 17 40  1  0  0  0  0
 18 19  2  0  0  0  0
 18 41  1  0  0  0  0
 19 42  1  0  0  0  0
 20 21  2  0  0  0  0
 20 30  1  0  0  0  0
 21 22  1  0  0  0  0
 21 43  1  0  0  0  0
 22 23  2  0  0  0  0
 23 24  1  0  0  0  0
 23 44  1  0  0  0  0
 24 25  1  0  0  0  0
 24 30  2  0  0  0  0
 25 26  2  0  0  0  0
 25 29  1  0  0  0  0
 26 27  1  0  0  0  0
 27 28  1  0  0  0  0
 27 45  1  0  0  0  0
 28 29  2  0  0  0  0
 28 46  1  0  0  0  0
 29 47  1  0  0  0  0
 30 48  1  0  0  0  0
M  END
$$$$
