
 OpenBabel01122422393D

 45 48  0  0  0  0  0  0  0  0999 V2000
    0.9791    0.1081   -0.2385 O   0  0  0  0  0  0  0  0  0  0  0  0
    2.1379    0.4692   -0.0774 C   0  0  0  0  0  0  0  0  0  0  0  0
    2.6928    0.8503    1.1325 N   0  0  0  0  0  0  0  0  0  0  0  0
    2.0465    0.8607    2.3895 C   0  0  0  0  0  0  0  0  0  0  0  0
    0.7261    0.4699    2.6059 C   0  0  0  0  0  0  0  0  0  0  0  0
    0.1889    0.4906    3.8940 C   0  0  0  0  0  0  0  0  0  0  0  0
    1.0029    0.8987    4.9367 C   0  0  0  0  0  0  0  0  0  0  0  0
    0.4731    0.8375    6.2182 O   0  0  0  0  0  0  0  0  0  0  0  0
    1.3466    0.5654    7.2492 C   0  0  0  0  0  0  0  0  0  0  0  0
    2.4232   -0.3190    7.1312 C   0  0  0  0  0  0  0  0  0  0  0  0
    3.2690   -0.5203    8.2109 C   0  0  0  0  0  0  0  0  0  0  0  0
    4.3295   -1.3277    8.0739 F   0  0  0  0  0  0  0  0  0  0  0  0
    3.0354    0.1047    9.4293 C   0  0  0  0  0  0  0  0  0  0  0  0
    1.9338    0.9494    9.5683 C   0  0  0  0  0  0  0  0  0  0  0  0
    1.0869    1.1767    8.4793 C   0  0  0  0  0  0  0  0  0  0  0  0
    2.2723    1.3316    4.7626 N   0  0  0  0  0  0  0  0  0  0  0  0
    2.7654    1.2842    3.5060 C   0  0  0  0  0  0  0  0  0  0  0  0
    3.0454    0.5338   -1.2631 C   0  0  0  0  0  0  0  0  0  0  0  0
    4.4061    0.2126   -1.0952 C   0  0  0  0  0  0  0  0  0  0  0  0
    5.2883    0.2501   -2.1748 C   0  0  0  0  0  0  0  0  0  0  0  0
    4.8168    0.5734   -3.4401 C   0  0  0  0  0  0  0  0  0  0  0  0
    3.4710    0.8793   -3.6261 C   0  0  0  0  0  0  0  0  0  0  0  0
    2.5606    0.8730   -2.5483 C   0  0  0  0  0  0  0  0  0  0  0  0
    1.1371    1.3065   -2.8512 C   0  0  0  0  0  0  0  0  0  0  0  0
    0.9308    2.7724   -2.6767 C   0  0  0  0  0  0  0  0  0  0  0  0
    1.1404    3.7308   -3.5596 N   0  0  0  0  0  0  0  0  0  0  0  0
    0.7692    4.8585   -2.8881 C   0  0  0  0  0  0  0  0  0  0  0  0
    0.3408    4.6620   -1.6385 N   0  0  0  0  0  0  0  0  0  0  0  0
    0.4463    3.3247   -1.5293 N   0  0  0  0  0  0  0  0  0  0  0  0
    3.6474    1.1869    1.1267 H   0  0  0  0  0  0  0  0  0  0  0  0
    0.0859    0.1260    1.8007 H   0  0  0  0  0  0  0  0  0  0  0  0
   -0.8297    0.1671    4.0742 H   0  0  0  0  0  0  0  0  0  0  0  0
    2.6375   -0.8310    6.1987 H   0  0  0  0  0  0  0  0  0  0  0  0
    3.7130   -0.0704   10.2586 H   0  0  0  0  0  0  0  0  0  0  0  0
    1.7400    1.4363   10.5204 H   0  0  0  0  0  0  0  0  0  0  0  0
    0.2343    1.8417    8.5872 H   0  0  0  0  0  0  0  0  0  0  0  0
    3.8031    1.5964    3.4334 H   0  0  0  0  0  0  0  0  0  0  0  0
    4.8013   -0.0984   -0.1311 H   0  0  0  0  0  0  0  0  0  0  0  0
    6.3407    0.0167   -2.0316 H   0  0  0  0  0  0  0  0  0  0  0  0
    5.4958    0.5909   -4.2895 H   0  0  0  0  0  0  0  0  0  0  0  0
    3.1253    1.1394   -4.6254 H   0  0  0  0  0  0  0  0  0  0  0  0
    0.3940    0.7361   -2.2914 H   0  0  0  0  0  0  0  0  0  0  0  0
    0.9112    1.0585   -3.8977 H   0  0  0  0  0  0  0  0  0  0  0  0
    0.8069    5.8495   -3.3234 H   0  0  0  0  0  0  0  0  0  0  0  0
    0.1697    2.8652   -0.6654 H   0  0  0  0  0  0  0  0  0  0  0  0
  1  2  2  0  0  0  0
  2  3  1  0  0  0  0
  2 18  1  0  0  0  0
  3  4  1  0  0  0  0
  3 30  1  0  0  0  0
  4  5  2  0  0  0  0
  4 17  1  0  0  0  0
  5  6  1  0  0  0  0
  5 31  1  0  0  0  0
  6  7  2  0  0  0  0
  6 32  1  0  0  0  0
  7  8  1  0  0  0  0
  7 16  1  0  0  0  0
  8  9  1  0  0  0  0
  9 10  2  0  0  0  0
  9 15  1  0  0  0  0
 10 11  1  0  0  0  0
 10 33  1  0  0  0  0
 11 12  1  0  0  0  0
 11 13  2  0  0  0  0
 13 14  1  0  0  0  0
 13 34  1  0  0  0  0
 14 15  2  0  0  0  0
 14 35  1  0  0  0  0
 15 36  1  0  0  0  0
 16 17  2  0  0  0  0
 17 37  1  0  0  0  0
 18 19  2  0  0  0  0
 18 23  1  0  0  0  0
 19 20  1  0  0  0  0
 19 38  1  0  0  0  0
 20 21  2  0  0  0  0
 20 39  1  0  0  0  0
 21 22  1  0  0  0  0
 21 40  1  0  0  0  0
 22 23  2  0  0  0  0
 22 41  1  0  0  0  0
 23 24  1  0  0  0  0
 24 25  1  0  0  0  0
 24 42  1  0  0  0  0
 24 43  1  0  0  0  0
 25 26  2  0  0  0  0
 25 29  1  0  0  0  0
 26 27  1  0  0  0  0
 27 28  2  0  0  0  0
 27 44  1  0  0  0  0
 28 29  1  0  0  0  0
 29 45  1  0  0  0  0
M  END
$$$$
