
 OpenBabel01122422393D

 41 44  0  0  0  0  0  0  0  0999 V2000
    1.1583    0.1795   -0.7230 O   0  0  0  0  0  0  0  0  0  0  0  0
    2.2339    0.0473   -0.1487 C   0  0  0  0  0  0  0  0  0  0  0  0
    2.7484   -1.1451    0.3321 N   0  0  0  0  0  0  0  0  0  0  0  0
    2.1004   -2.4013    0.2390 C   0  0  0  0  0  0  0  0  0  0  0  0
    0.9652   -2.6471   -0.5356 C   0  0  0  0  0  0  0  0  0  0  0  0
    0.3696   -3.9076   -0.5303 C   0  0  0  0  0  0  0  0  0  0  0  0
    0.9490   -4.8987    0.2378 C   0  0  0  0  0  0  0  0  0  0  0  0
    0.3621   -6.1562    0.1837 O   0  0  0  0  0  0  0  0  0  0  0  0
    1.1958   -7.2344    0.3650 C   0  0  0  0  0  0  0  0  0  0  0  0
    2.4760   -7.3051   -0.1992 C   0  0  0  0  0  0  0  0  0  0  0  0
    3.2955   -8.4041    0.0525 C   0  0  0  0  0  0  0  0  0  0  0  0
    2.8193   -9.4636    0.8262 C   0  0  0  0  0  0  0  0  0  0  0  0
    1.5224   -9.4242    1.3405 C   0  0  0  0  0  0  0  0  0  0  0  0
    0.7164   -8.3140    1.1023 C   0  0  0  0  0  0  0  0  0  0  0  0
   -0.5268   -8.2955    1.6067 F   0  0  0  0  0  0  0  0  0  0  0  0
    2.0496   -4.7043    1.0022 N   0  0  0  0  0  0  0  0  0  0  0  0
    2.6039   -3.4728    0.9708 C   0  0  0  0  0  0  0  0  0  0  0  0
    3.0521    1.2674    0.0514 C   0  0  0  0  0  0  0  0  0  0  0  0
    4.4328    1.2010   -0.1141 C   0  0  0  0  0  0  0  0  0  0  0  0
    5.2500    2.2738   -0.0813 N   0  0  0  0  0  0  0  0  0  0  0  0
    4.6480    3.4673    0.0736 C   0  0  0  0  0  0  0  0  0  0  0  0
    5.5264    4.5029    0.0531 O   0  0  0  0  0  0  0  0  0  0  0  0
    3.2773    3.6794    0.2344 C   0  0  0  0  0  0  0  0  0  0  0  0
    2.7111    4.9618    0.3577 C   0  0  0  0  0  0  0  0  0  0  0  0
    1.3451    5.0753    0.5275 C   0  0  0  0  0  0  0  0  0  0  0  0
    0.5206    4.0169    0.6084 N   0  0  0  0  0  0  0  0  0  0  0  0
    1.0818    2.7906    0.4687 C   0  0  0  0  0  0  0  0  0  0  0  0
    2.4518    2.5419    0.2528 C   0  0  0  0  0  0  0  0  0  0  0  0
    3.5889   -1.1221    0.8980 H   0  0  0  0  0  0  0  0  0  0  0  0
    0.5199   -1.8880   -1.1694 H   0  0  0  0  0  0  0  0  0  0  0  0
   -0.5144   -4.1089   -1.1252 H   0  0  0  0  0  0  0  0  0  0  0  0
    2.8566   -6.4877   -0.8047 H   0  0  0  0  0  0  0  0  0  0  0  0
    4.3061   -8.4253   -0.3472 H   0  0  0  0  0  0  0  0  0  0  0  0
    3.4630  -10.3150    1.0293 H   0  0  0  0  0  0  0  0  0  0  0  0
    1.1373  -10.2500    1.9289 H   0  0  0  0  0  0  0  0  0  0  0  0
    3.4942   -3.3775    1.5852 H   0  0  0  0  0  0  0  0  0  0  0  0
    4.9425    0.2648   -0.3253 H   0  0  0  0  0  0  0  0  0  0  0  0
    6.3612    4.0206   -0.0873 H   0  0  0  0  0  0  0  0  0  0  0  0
    3.3267    5.8544    0.3084 H   0  0  0  0  0  0  0  0  0  0  0  0
    0.8653    6.0467    0.6040 H   0  0  0  0  0  0  0  0  0  0  0  0
    0.3567    1.9825    0.5468 H   0  0  0  0  0  0  0  0  0  0  0  0
  1  2  2  0  0  0  0
  2  3  1  0  0  0  0
  2 18  1  0  0  0  0
  3  4  1  0  0  0  0
  3 29  1  0  0  0  0
  4  5  2  0  0  0  0
  4 17  1  0  0  0  0
  5  6  1  0  0  0  0
  5 30  1  0  0  0  0
  6  7  2  0  0  0  0
  6 31  1  0  0  0  0
  7  8  1  0  0  0  0
  7 16  1  0  0  0  0
  8  9  1  0  0  0  0
  9 10  2  0  0  0  0
  9 14  1  0  0  0  0
 10 11  1  0  0  0  0
 10 32  1  0  0  0  0
 11 12  2  0  0  0  0
 11 33  1  0  0  0  0
 12 13  1  0  0  0  0
 12 34  1  0  0  0  0
 13 14  2  0  0  0  0
 13 35  1  0  0  0  0
 14 15  1  0  0  0  0
 16 17  2  0  0  0  0
 17 36  1  0  0  0  0
 18 19  2  0  0  0  0
 18 28  1  0  0  0  0
 19 20  1  0  0  0  0
 19 37  1  0  0  0  0
 20 21  2  0  0  0  0
 21 22  1  0  0  0  0
 21 23  1  0  0  0  0
 22 38  1  0  0  0  0
 23 24  2  0  0  0  0
 23 28  1  0  0  0  0
 24 25  1  0  0  0  0
 24 39  1  0  0  0  0
 25 26  2  0  0  0  0
 25 40  1  0  0  0  0
 26 27  1  0  0  0  0
 27 28  2  0  0  0  0
 27 41  1  0  0  0  0
M  END
$$$$
