
 OpenBabel01122422393D

 57 60  0  0  1  0  0  0  0  0999 V2000
    1.9376    1.3584    0.1987 C   0  0  0  0  0  0  0  0  0  0  0  0
    2.3636    0.0200   -0.0726 O   0  0  0  0  0  0  0  0  0  0  0  0
    3.0852   -0.1202   -1.2345 C   0  0  0  0  0  0  0  0  0  0  0  0
    2.7844    0.6185   -2.3853 C   0  0  0  0  0  0  0  0  0  0  0  0
    3.5704    0.4927   -3.5320 C   0  0  0  0  0  0  0  0  0  0  0  0
    3.2601    1.3551   -4.6984 C   0  0  0  0  0  0  0  0  0  0  0  0
    2.1151    1.7290   -4.9181 O   0  0  0  0  0  0  0  0  0  0  0  0
    4.3411    1.7127   -5.4524 N   0  0  0  0  0  0  0  0  0  0  0  0
    4.2557    2.6267   -6.5625 C   0  0  3  0  0  0  0  0  0  0  0  0
    4.4217    4.0698   -6.1070 C   0  0  0  0  0  0  0  0  0  0  0  0
    5.5842    4.5256   -5.4516 C   0  0  0  0  0  0  0  0  0  0  0  0
    5.6837    5.8437   -5.0018 C   0  0  0  0  0  0  0  0  0  0  0  0
    4.6189    6.7136   -5.1924 C   0  0  0  0  0  0  0  0  0  0  0  0
    4.7114    7.9759   -4.7537 F   0  0  0  0  0  0  0  0  0  0  0  0
    3.4557    6.2906   -5.8224 C   0  0  0  0  0  0  0  0  0  0  0  0
    3.3547    4.9725   -6.2745 C   0  0  0  0  0  0  0  0  0  0  0  0
    5.3933    2.3212   -7.5103 C   0  0  0  0  0  0  0  0  0  0  0  0
    6.5397    1.7466   -7.0816 N   0  0  0  0  0  0  0  0  0  0  0  0
    7.2682    1.5999   -8.2019 N   0  0  0  0  0  0  0  0  0  0  0  0
    8.5830    1.0078   -8.1382 C   0  0  0  0  0  0  0  0  0  0  0  0
    6.6284    2.0268   -9.3271 C   0  0  0  0  0  0  0  0  0  0  0  0
    5.4058    2.4989   -8.9153 C   0  0  0  0  0  0  0  0  0  0  0  0
    4.6377   -0.4050   -3.5527 C   0  0  0  0  0  0  0  0  0  0  0  0
    4.9167   -1.1727   -2.4254 C   0  0  0  0  0  0  0  0  0  0  0  0
    4.1252   -1.0701   -1.2714 C   0  0  0  0  0  0  0  0  0  0  0  0
    4.3252   -1.8604   -0.1602 O   0  0  0  0  0  0  0  0  0  0  0  0
    5.0727   -3.0638   -0.4033 C   0  0  0  0  0  0  0  0  0  0  0  0
    4.8901   -4.1002    0.6461 C   0  0  0  0  0  0  0  0  0  0  0  0
    3.8458   -4.2756    1.5270 C   0  0  0  0  0  0  0  0  0  0  0  0
    4.1174   -5.4113    2.2281 N   0  0  0  0  0  0  0  0  0  0  0  0
    3.2995   -6.0160    3.2491 C   0  0  0  0  0  0  0  0  0  0  0  0
    5.2748   -5.9968    1.8694 N   0  0  0  0  0  0  0  0  0  0  0  0
    5.7429   -5.1990    0.9078 C   0  0  0  0  0  0  0  0  0  0  0  0
    1.4724    1.3776    1.1887 H   0  0  0  0  0  0  0  0  0  0  0  0
    1.1773    1.6985   -0.5117 H   0  0  0  0  0  0  0  0  0  0  0  0
    2.7890    2.0493    0.2110 H   0  0  0  0  0  0  0  0  0  0  0  0
    1.9381    1.2978   -2.4187 H   0  0  0  0  0  0  0  0  0  0  0  0
    5.2875    1.4724   -5.1907 H   0  0  0  0  0  0  0  0  0  0  0  0
    3.2966    2.4826   -7.0741 H   0  0  0  0  0  0  0  0  0  0  0  0
    6.4212    3.8500   -5.2842 H   0  0  0  0  0  0  0  0  0  0  0  0
    6.5802    6.1916   -4.4993 H   0  0  0  0  0  0  0  0  0  0  0  0
    2.6303    6.9840   -5.9471 H   0  0  0  0  0  0  0  0  0  0  0  0
    2.4262    4.6452   -6.7395 H   0  0  0  0  0  0  0  0  0  0  0  0
    8.8897    0.9091   -7.0935 H   0  0  0  0  0  0  0  0  0  0  0  0
    9.2814    1.6581   -8.6702 H   0  0  0  0  0  0  0  0  0  0  0  0
    8.5358    0.0241   -8.6111 H   0  0  0  0  0  0  0  0  0  0  0  0
    7.0811    1.9469  -10.3060 H   0  0  0  0  0  0  0  0  0  0  0  0
    4.6204    2.9029   -9.5401 H   0  0  0  0  0  0  0  0  0  0  0  0
    5.2464   -0.5416   -4.4425 H   0  0  0  0  0  0  0  0  0  0  0  0
    5.7655   -1.8462   -2.4839 H   0  0  0  0  0  0  0  0  0  0  0  0
    6.1382   -2.8080   -0.4656 H   0  0  0  0  0  0  0  0  0  0  0  0
    4.7515   -3.5269   -1.3464 H   0  0  0  0  0  0  0  0  0  0  0  0
    2.9449   -3.6974    1.6897 H   0  0  0  0  0  0  0  0  0  0  0  0
    2.3835   -5.4328    3.3709 H   0  0  0  0  0  0  0  0  0  0  0  0
    3.8665   -6.0236    4.1828 H   0  0  0  0  0  0  0  0  0  0  0  0
    3.0536   -7.0346    2.9382 H   0  0  0  0  0  0  0  0  0  0  0  0
    6.6772   -5.4582    0.4253 H   0  0  0  0  0  0  0  0  0  0  0  0
  1  2  1  0  0  0  0
  1 34  1  0  0  0  0
  1 35  1  0  0  0  0
  1 36  1  0  0  0  0
  2  3  1  0  0  0  0
  3  4  2  0  0  0  0
  3 25  1  0  0  0  0
  4  5  1  0  0  0  0
  4 37  1  0  0  0  0
  5  6  1  0  0  0  0
  5 23  2  0  0  0  0
  6  7  2  0  0  0  0
  6  8  1  0  0  0  0
  8  9  1  0  0  0  0
  8 38  1  0  0  0  0
  9 10  1  0  0  0  0
  9 17  1  0  0  0  0
  9 39  1  0  0  0  0
 10 11  2  0  0  0  0
 10 16  1  0  0  0  0
 11 12  1  0  0  0  0
 11 40  1  0  0  0  0
 12 13  2  0  0  0  0
 12 41  1  0  0  0  0
 13 14  1  0  0  0  0
 13 15  1  0  0  0  0
 15 16  2  0  0  0  0
 15 42  1  0  0  0  0
 16 43  1  0  0  0  0
 17 18  2  0  0  0  0
 17 22  1  0  0  0  0
 18 19  1  0  0  0  0
 19 20  1  0  0  0  0
 19 21  1  0  0  0  0
 20 44  1  0  0  0  0
 20 45  1  0  0  0  0
 20 46  1  0  0  0  0
 21 22  2  0  0  0  0
 21 47  1  0  0  0  0
 22 48  1  0  0  0  0
 23 24  1  0  0  0  0
 23 49  1  0  0  0  0
 24 25  2  0  0  0  0
 24 50  1  0  0  0  0
 25 26  1  0  0  0  0
 26 27  1  0  0  0  0
 27 28  1  0  0  0  0
 27 51  1  0  0  0  0
 27 52  1  0  0  0  0
 28 29  2  0  0  0  0
 28 33  1  0  0  0  0
 29 30  1  0  0  0  0
 29 53  1  0  0  0  0
 30 31  1  0  0  0  0
 30 32  1  0  0  0  0
 31 54  1  0  0  0  0
 31 55  1  0  0  0  0
 31 56  1  0  0  0  0
 32 33  2  0  0  0  0
 33 57  1  0  0  0  0
M  END
$$$$
