
 OpenBabel01122422393D

 45 48  0  0  0  0  0  0  0  0999 V2000
    0.7698    0.2513   -0.1169 C   0  0  0  0  0  0  0  0  0  0  0  0
    2.2360    0.1554    0.0803 C   0  0  0  0  0  0  0  0  0  0  0  0
    3.1725    1.1616    0.1960 C   0  0  0  0  0  0  0  0  0  0  0  0
    4.3630    0.6409    0.5912 N   0  0  0  0  0  0  0  0  0  0  0  0
    4.2094   -0.6673    0.7377 N   0  0  0  0  0  0  0  0  0  0  0  0
    2.9657   -1.0030    0.3152 N   0  0  0  0  0  0  0  0  0  0  0  0
    2.5951   -2.3628    0.1545 C   0  0  0  0  0  0  0  0  0  0  0  0
    1.6058   -2.7127   -0.7670 C   0  0  0  0  0  0  0  0  0  0  0  0
    1.2208   -4.0391   -0.9090 C   0  0  0  0  0  0  0  0  0  0  0  0
    1.8306   -5.0267   -0.1398 C   0  0  0  0  0  0  0  0  0  0  0  0
    2.8560   -4.7215    0.7610 C   0  0  0  0  0  0  0  0  0  0  0  0
    3.5188   -5.7122    1.5391 N   0  0  0  0  0  0  0  0  0  0  0  0
    3.2095   -7.0628    1.5601 C   0  0  0  0  0  0  0  0  0  0  0  0
    2.3006   -7.5959    0.9267 O   0  0  0  0  0  0  0  0  0  0  0  0
    4.0911   -7.9635    2.3869 C   0  0  0  0  0  0  0  0  0  0  0  0
    4.7666   -7.5710    3.4801 C   0  0  0  0  0  0  0  0  0  0  0  0
    5.5676   -8.4499    4.2157 N   0  0  0  0  0  0  0  0  0  0  0  0
    6.3166   -7.9780    5.3392 C   0  0  0  0  0  0  0  0  0  0  0  0
    7.6870   -8.2519    5.4355 C   0  0  0  0  0  0  0  0  0  0  0  0
    8.4366   -7.7441    6.4975 C   0  0  0  0  0  0  0  0  0  0  0  0
    7.8159   -6.9964    7.4986 C   0  0  0  0  0  0  0  0  0  0  0  0
    6.4457   -6.7453    7.4290 C   0  0  0  0  0  0  0  0  0  0  0  0
    5.7109   -7.2181    6.3466 C   0  0  0  0  0  0  0  0  0  0  0  0
    4.3915   -6.9729    6.3125 F   0  0  0  0  0  0  0  0  0  0  0  0
    5.6571   -9.8166    3.8899 C   0  0  0  0  0  0  0  0  0  0  0  0
    6.2998  -10.6697    4.4987 O   0  0  0  0  0  0  0  0  0  0  0  0
    4.8552  -10.2553    2.7207 C   0  0  0  0  0  0  0  0  0  0  0  0
    4.1382   -9.3707    2.0217 C   0  0  0  0  0  0  0  0  0  0  0  0
    3.2499   -3.3761    0.8927 C   0  0  0  0  0  0  0  0  0  0  0  0
    0.4316    1.2853    0.0042 H   0  0  0  0  0  0  0  0  0  0  0  0
    0.2408   -0.3522    0.6291 H   0  0  0  0  0  0  0  0  0  0  0  0
    0.4658   -0.0637   -1.1175 H   0  0  0  0  0  0  0  0  0  0  0  0
    3.0327    2.2256    0.0629 H   0  0  0  0  0  0  0  0  0  0  0  0
    1.1581   -1.9921   -1.4389 H   0  0  0  0  0  0  0  0  0  0  0  0
    0.4549   -4.3166   -1.6293 H   0  0  0  0  0  0  0  0  0  0  0  0
    1.4819   -6.0406   -0.3013 H   0  0  0  0  0  0  0  0  0  0  0  0
    4.2995   -5.3832    2.0920 H   0  0  0  0  0  0  0  0  0  0  0  0
    4.7457   -6.5465    3.8351 H   0  0  0  0  0  0  0  0  0  0  0  0
    8.1912   -8.8298    4.6610 H   0  0  0  0  0  0  0  0  0  0  0  0
    9.5061   -7.9362    6.5443 H   0  0  0  0  0  0  0  0  0  0  0  0
    8.3982   -6.6148    8.3321 H   0  0  0  0  0  0  0  0  0  0  0  0
    5.9445   -6.1873    8.2134 H   0  0  0  0  0  0  0  0  0  0  0  0
    4.8743  -11.3108    2.4810 H   0  0  0  0  0  0  0  0  0  0  0  0
    3.5458   -9.7018    1.1718 H   0  0  0  0  0  0  0  0  0  0  0  0
    4.0388   -3.1077    1.5934 H   0  0  0  0  0  0  0  0  0  0  0  0
  1  2  1  0  0  0  0
  1 30  1  0  0  0  0
  1 31  1  0  0  0  0
  1 32  1  0  0  0  0
  2  3  2  0  0  0  0
  2  6  1  0  0  0  0
  3  4  1  0  0  0  0
  3 33  1  0  0  0  0
  4  5  2  0  0  0  0
  5  6  1  0  0  0  0
  6  7  1  0  0  0  0
  7  8  2  0  0  0  0
  7 29  1  0  0  0  0
  8  9  1  0  0  0  0
  8 34  1  0  0  0  0
  9 10  2  0  0  0  0
  9 35  1  0  0  0  0
 10 11  1  0  0  0  0
 10 36  1  0  0  0  0
 11 12  1  0  0  0  0
 11 29  2  0  0  0  0
 12 13  1  0  0  0  0
 12 37  1  0  0  0  0
 13 14  2  0  0  0  0
 13 15  1  0  0  0  0
 15 16  2  0  0  0  0
 15 28  1  0  0  0  0
 16 17  1  0  0  0  0
 16 38  1  0  0  0  0
 17 18  1  0  0  0  0
 17 25  1  0  0  0  0
 18 19  2  0  0  0  0
 18 23  1  0  0  0  0
 19 20  1  0  0  0  0
 19 39  1  0  0  0  0
 20 21  2  0  0  0  0
 20 40  1  0  0  0  0
 21 22  1  0  0  0  0
 21 41  1  0  0  0  0
 22 23  2  0  0  0  0
 22 42  1  0  0  0  0
 23 24  1  0  0  0  0
 25 26  2  0  0  0  0
 25 27  1  0  0  0  0
 27 28  2  0  0  0  0
 27 43  1  0  0  0  0
 28 44  1  0  0  0  0
 29 45  1  0  0  0  0
M  END
$$$$
