
 OpenBabel01122422393D

 47 50  0  0  0  0  0  0  0  0999 V2000
    2.4966    0.6191    1.1077 O   0  0  0  0  0  0  0  0  0  0  0  0
    2.2406   -0.4253    0.5145 C   0  0  0  0  0  0  0  0  0  0  0  0
    0.8026   -0.7408    0.1258 C   0  0  0  0  0  0  0  0  0  0  0  0
    0.0486   -1.5743    1.1300 C   0  0  0  0  0  0  0  0  0  0  0  0
   -1.0131   -2.3886    0.7178 C   0  0  0  0  0  0  0  0  0  0  0  0
   -1.7260   -3.1310    1.6558 C   0  0  0  0  0  0  0  0  0  0  0  0
   -1.3620   -3.0279    2.9865 C   0  0  0  0  0  0  0  0  0  0  0  0
   -0.3658   -2.2336    3.4279 N   0  0  0  0  0  0  0  0  0  0  0  0
    0.3041   -1.5140    2.4981 C   0  0  0  0  0  0  0  0  0  0  0  0
    3.1497   -1.4206    0.1514 N   0  0  0  0  0  0  0  0  0  0  0  0
    4.5517   -1.4086    0.3752 C   0  0  0  0  0  0  0  0  0  0  0  0
    5.2036   -0.3432    0.9951 C   0  0  0  0  0  0  0  0  0  0  0  0
    6.5823   -0.3651    1.1698 C   0  0  0  0  0  0  0  0  0  0  0  0
    7.3265   -1.4636    0.7473 C   0  0  0  0  0  0  0  0  0  0  0  0
    6.7097   -2.5717    0.1592 C   0  0  0  0  0  0  0  0  0  0  0  0
    7.4310   -3.7387   -0.2236 N   0  0  0  0  0  0  0  0  0  0  0  0
    8.7905   -3.9548   -0.0268 C   0  0  0  0  0  0  0  0  0  0  0  0
    9.5765   -3.1736    0.5033 O   0  0  0  0  0  0  0  0  0  0  0  0
    9.3561   -5.2485   -0.5365 C   0  0  0  0  0  0  0  0  0  0  0  0
   10.7528   -5.3786   -0.5294 C   0  0  0  0  0  0  0  0  0  0  0  0
   11.3383   -6.4837   -1.1296 C   0  0  0  0  0  0  0  0  0  0  0  0
   10.4992   -7.4479   -1.6525 C   0  0  0  0  0  0  0  0  0  0  0  0
   10.9952   -8.6321   -2.3785 C   0  0  0  0  0  0  0  0  0  0  0  0
   10.4037   -9.7527   -1.9262 C   0  0  0  0  0  0  0  0  0  0  0  0
    8.8984   -9.6874   -1.9918 C   0  0  0  0  0  0  0  0  0  0  0  0
    8.2382  -10.7104   -2.1075 O   0  0  0  0  0  0  0  0  0  0  0  0
    8.3376   -8.4457   -1.7849 N   0  0  0  0  0  0  0  0  0  0  0  0
    9.1090   -7.3129   -1.4902 C   0  0  0  0  0  0  0  0  0  0  0  0
    8.5019   -6.2071   -0.9996 N   0  0  0  0  0  0  0  0  0  0  0  0
    5.3162   -2.5221   -0.0445 C   0  0  0  0  0  0  0  0  0  0  0  0
    0.8052   -1.2347   -0.8540 H   0  0  0  0  0  0  0  0  0  0  0  0
    0.2736    0.2117   -0.0061 H   0  0  0  0  0  0  0  0  0  0  0  0
   -1.2992   -2.4427   -0.3298 H   0  0  0  0  0  0  0  0  0  0  0  0
   -2.5497   -3.7699    1.3580 H   0  0  0  0  0  0  0  0  0  0  0  0
   -1.8809   -3.5912    3.7567 H   0  0  0  0  0  0  0  0  0  0  0  0
    1.0728   -0.8647    2.9123 H   0  0  0  0  0  0  0  0  0  0  0  0
    2.7761   -2.2476   -0.2916 H   0  0  0  0  0  0  0  0  0  0  0  0
    4.6754    0.5307    1.3602 H   0  0  0  0  0  0  0  0  0  0  0  0
    7.0810    0.4760    1.6457 H   0  0  0  0  0  0  0  0  0  0  0  0
    8.3974   -1.4088    0.9069 H   0  0  0  0  0  0  0  0  0  0  0  0
    6.9216   -4.5048   -0.6521 H   0  0  0  0  0  0  0  0  0  0  0  0
   11.3807   -4.6102   -0.0855 H   0  0  0  0  0  0  0  0  0  0  0  0
   12.4181   -6.5867   -1.1713 H   0  0  0  0  0  0  0  0  0  0  0  0
   10.8874   -8.4239   -3.4521 H   0  0  0  0  0  0  0  0  0  0  0  0
   10.6676  -10.0983   -0.9211 H   0  0  0  0  0  0  0  0  0  0  0  0
    7.3369   -8.3921   -1.6794 H   0  0  0  0  0  0  0  0  0  0  0  0
    4.8211   -3.3606   -0.5250 H   0  0  0  0  0  0  0  0  0  0  0  0
  1  2  2  0  0  0  0
  2  3  1  0  0  0  0
  2 10  1  0  0  0  0
  3  4  1  0  0  0  0
  3 31  1  0  0  0  0
  3 32  1  0  0  0  0
  4  5  2  0  0  0  0
  4  9  1  0  0  0  0
  5  6  1  0  0  0  0
  5 33  1  0  0  0  0
  6  7  2  0  0  0  0
  6 34  1  0  0  0  0
  7  8  1  0  0  0  0
  7 35  1  0  0  0  0
  8  9  2  0  0  0  0
  9 36  1  0  0  0  0
 10 11  1  0  0  0  0
 10 37  1  0  0  0  0
 11 12  2  0  0  0  0
 11 30  1  0  0  0  0
 12 13  1  0  0  0  0
 12 38  1  0  0  0  0
 13 14  2  0  0  0  0
 13 39  1  0  0  0  0
 14 15  1  0  0  0  0
 14 40  1  0  0  0  0
 15 16  1  0  0  0  0
 15 30  2  0  0  0  0
 16 17  1  0  0  0  0
 16 41  1  0  0  0  0
 17 18  2  0  0  0  0
 17 19  1  0  0  0  0
 19 20  2  0  0  0  0
 19 29  1  0  0  0  0
 20 21  1  0  0  0  0
 20 42  1  0  0  0  0
 21 22  2  0  0  0  0
 21 43  1  0  0  0  0
 22 23  1  0  0  0  0
 22 28  1  0  0  0  0
 23 24  2  0  0  0  0
 23 44  1  0  0  0  0
 24 25  1  0  0  0  0
 24 45  1  0  0  0  0
 25 26  2  0  0  0  0
 25 27  1  0  0  0  0
 27 28  1  0  0  0  0
 27 46  1  0  0  0  0
 28 29  2  0  0  0  0
 30 47  1  0  0  0  0
M  END
$$$$
