
 OpenBabel01122422393D

 47 50  0  0  0  0  0  0  0  0999 V2000
    1.8885    0.1929    1.1834 O   0  0  0  0  0  0  0  0  0  0  0  0
    2.1230   -0.3225    0.0864 C   0  0  0  0  0  0  0  0  0  0  0  0
    2.8082    0.4939   -0.9919 C   0  0  0  0  0  0  0  0  0  0  0  0
    1.9339    1.2030   -2.0081 C   0  0  0  0  0  0  0  0  0  0  0  0
    2.6159    1.9680   -2.9862 C   0  0  0  0  0  0  0  0  0  0  0  0
    1.9355    2.6436   -4.0040 C   0  0  0  0  0  0  0  0  0  0  0  0
    0.5606    2.5271   -4.1052 C   0  0  0  0  0  0  0  0  0  0  0  0
   -0.1239    1.7542   -3.1780 C   0  0  0  0  0  0  0  0  0  0  0  0
    0.5304    1.1684   -2.0750 C   0  0  0  0  0  0  0  0  0  0  0  0
   -0.2228    0.5833   -1.0628 O   0  0  0  0  0  0  0  0  0  0  0  0
   -1.4593    1.1495   -0.7809 C   0  0  0  0  0  0  0  0  0  0  0  0
   -2.5220    0.3034   -0.4765 C   0  0  0  0  0  0  0  0  0  0  0  0
   -3.7854    0.8721   -0.3800 C   0  0  0  0  0  0  0  0  0  0  0  0
   -4.0470    2.1914   -0.5642 N   0  0  0  0  0  0  0  0  0  0  0  0
   -2.9859    2.9861   -0.8002 C   0  0  0  0  0  0  0  0  0  0  0  0
   -1.6859    2.5275   -0.8624 C   0  0  0  0  0  0  0  0  0  0  0  0
    1.8393   -1.6317   -0.2771 N   0  0  0  0  0  0  0  0  0  0  0  0
    1.1670   -2.6025    0.5057 C   0  0  0  0  0  0  0  0  0  0  0  0
    0.7158   -2.3727    1.8072 C   0  0  0  0  0  0  0  0  0  0  0  0
    0.1199   -3.3858    2.5587 C   0  0  0  0  0  0  0  0  0  0  0  0
   -0.0233   -4.6806    2.0463 C   0  0  0  0  0  0  0  0  0  0  0  0
   -0.4792   -5.7641    2.9261 C   0  0  0  0  0  0  0  0  0  0  0  0
   -1.2938   -5.7101    3.9970 C   0  0  0  0  0  0  0  0  0  0  0  0
   -1.3359   -6.9518    4.5887 N   0  0  0  0  0  0  0  0  0  0  0  0
   -0.5023   -7.8251    3.8798 C   0  0  0  0  0  0  0  0  0  0  0  0
   -0.2460   -8.9859    4.1372 O   0  0  0  0  0  0  0  0  0  0  0  0
   -0.0050   -7.0542    2.8230 N   0  0  0  0  0  0  0  0  0  0  0  0
    0.3680   -4.9002    0.7211 C   0  0  0  0  0  0  0  0  0  0  0  0
    0.9539   -3.8726   -0.0450 C   0  0  0  0  0  0  0  0  0  0  0  0
    3.5151   -0.1582   -1.5241 H   0  0  0  0  0  0  0  0  0  0  0  0
    3.4269    1.2434   -0.4752 H   0  0  0  0  0  0  0  0  0  0  0  0
    3.7016    2.0566   -2.9551 H   0  0  0  0  0  0  0  0  0  0  0  0
    2.4777    3.2467   -4.7275 H   0  0  0  0  0  0  0  0  0  0  0  0
    0.0077    3.0449   -4.8836 H   0  0  0  0  0  0  0  0  0  0  0  0
   -1.2034    1.6744   -3.2862 H   0  0  0  0  0  0  0  0  0  0  0  0
   -2.3904   -0.7612   -0.3541 H   0  0  0  0  0  0  0  0  0  0  0  0
   -4.6612    0.2695   -0.1649 H   0  0  0  0  0  0  0  0  0  0  0  0
   -3.2110    4.0323   -0.9835 H   0  0  0  0  0  0  0  0  0  0  0  0
   -0.8838    3.2214   -1.0769 H   0  0  0  0  0  0  0  0  0  0  0  0
    2.1424   -1.9279   -1.1960 H   0  0  0  0  0  0  0  0  0  0  0  0
    0.8183   -1.3978    2.2802 H   0  0  0  0  0  0  0  0  0  0  0  0
   -0.1851   -3.1516    3.5765 H   0  0  0  0  0  0  0  0  0  0  0  0
   -1.8234   -4.8702    4.4144 H   0  0  0  0  0  0  0  0  0  0  0  0
   -1.8160   -7.2060    5.4372 H   0  0  0  0  0  0  0  0  0  0  0  0
    0.6840   -7.3924    2.1713 H   0  0  0  0  0  0  0  0  0  0  0  0
    0.2262   -5.8786    0.2579 H   0  0  0  0  0  0  0  0  0  0  0  0
    1.2438   -4.0892   -1.0703 H   0  0  0  0  0  0  0  0  0  0  0  0
  1  2  2  0  0  0  0
  2  3  1  0  0  0  0
  2 17  1  0  0  0  0
  3  4  1  0  0  0  0
  3 30  1  0  0  0  0
  3 31  1  0  0  0  0
  4  5  2  0  0  0  0
  4  9  1  0  0  0  0
  5  6  1  0  0  0  0
  5 32  1  0  0  0  0
  6  7  2  0  0  0  0
  6 33  1  0  0  0  0
  7  8  1  0  0  0  0
  7 34  1  0  0  0  0
  8  9  2  0  0  0  0
  8 35  1  0  0  0  0
  9 10  1  0  0  0  0
 10 11  1  0  0  0  0
 11 12  2  0  0  0  0
 11 16  1  0  0  0  0
 12 13  1  0  0  0  0
 12 36  1  0  0  0  0
 13 14  2  0  0  0  0
 13 37  1  0  0  0  0
 14 15  1  0  0  0  0
 15 16  2  0  0  0  0
 15 38  1  0  0  0  0
 16 39  1  0  0  0  0
 17 18  1  0  0  0  0
 17 40  1  0  0  0  0
 18 19  2  0  0  0  0
 18 29  1  0  0  0  0
 19 20  1  0  0  0  0
 19 41  1  0  0  0  0
 20 21  2  0  0  0  0
 20 42  1  0  0  0  0
 21 22  1  0  0  0  0
 21 28  1  0  0  0  0
 22 23  2  0  0  0  0
 22 27  1  0  0  0  0
 23 24  1  0  0  0  0
 23 43  1  0  0  0  0
 24 25  1  0  0  0  0
 24 44  1  0  0  0  0
 25 26  2  0  0  0  0
 25 27  1  0  0  0  0
 27 45  1  0  0  0  0
 28 29  2  0  0  0  0
 28 46  1  0  0  0  0
 29 47  1  0  0  0  0
M  END
$$$$
