
 OpenBabel01122422393D

 39 42  0  0  0  0  0  0  0  0999 V2000
    4.9927    1.7338    1.1851 O   0  0  0  0  0  0  0  0  0  0  0  0
    4.2585    0.8765    0.6967 C   0  0  0  0  0  0  0  0  0  0  0  0
    2.9151    1.0833    0.4001 N   0  0  0  0  0  0  0  0  0  0  0  0
    2.2738    2.3014    0.7021 C   0  0  0  0  0  0  0  0  0  0  0  0
    1.1440    2.3080    1.5289 C   0  0  0  0  0  0  0  0  0  0  0  0
    0.7938    1.1431    2.1029 F   0  0  0  0  0  0  0  0  0  0  0  0
    0.4485    3.4954    1.8375 C   0  0  0  0  0  0  0  0  0  0  0  0
   -0.7066    3.5186    2.7690 C   0  0  0  0  0  0  0  0  0  0  0  0
   -1.0102    4.6503    3.5441 C   0  0  0  0  0  0  0  0  0  0  0  0
   -2.0872    4.6162    4.4169 C   0  0  0  0  0  0  0  0  0  0  0  0
   -2.8841    3.5436    4.5852 N   0  0  0  0  0  0  0  0  0  0  0  0
   -2.5892    2.4595    3.8428 C   0  0  0  0  0  0  0  0  0  0  0  0
   -1.5436    2.4062    2.9363 C   0  0  0  0  0  0  0  0  0  0  0  0
    0.9199    4.6793    1.2333 C   0  0  0  0  0  0  0  0  0  0  0  0
    2.0528    4.6830    0.4139 C   0  0  0  0  0  0  0  0  0  0  0  0
    2.7390    3.4980    0.1626 C   0  0  0  0  0  0  0  0  0  0  0  0
    4.7035   -0.5094    0.4302 C   0  0  0  0  0  0  0  0  0  0  0  0
    5.9034   -0.9946    0.8007 N   0  0  0  0  0  0  0  0  0  0  0  0
    5.8381   -2.2809    0.4106 N   0  0  0  0  0  0  0  0  0  0  0  0
    6.7637   -3.3022    0.5975 C   0  0  0  0  0  0  0  0  0  0  0  0
    6.5115   -4.5300    0.1232 C   0  0  0  0  0  0  0  0  0  0  0  0
    5.2119   -4.6995   -0.6311 C   0  0  0  0  0  0  0  0  0  0  0  0
    4.9424   -6.0744   -1.2460 C   0  0  0  0  0  0  0  0  0  0  0  0
    5.9432   -6.9678   -0.9927 F   0  0  0  0  0  0  0  0  0  0  0  0
    3.8022   -6.6368   -0.7697 F   0  0  0  0  0  0  0  0  0  0  0  0
    4.8201   -6.0145   -2.5994 F   0  0  0  0  0  0  0  0  0  0  0  0
    4.3325   -3.7435   -0.7830 N   0  0  0  0  0  0  0  0  0  0  0  0
    4.6263   -2.5213   -0.2408 C   0  0  0  0  0  0  0  0  0  0  0  0
    3.8977   -1.4352   -0.2075 N   0  0  0  0  0  0  0  0  0  0  0  0
    2.3521    0.2361    0.3745 H   0  0  0  0  0  0  0  0  0  0  0  0
   -0.4132    5.5547    3.4972 H   0  0  0  0  0  0  0  0  0  0  0  0
   -2.3375    5.4793    5.0272 H   0  0  0  0  0  0  0  0  0  0  0  0
   -3.2312    1.5977    3.9977 H   0  0  0  0  0  0  0  0  0  0  0  0
   -1.3932    1.4890    2.3764 H   0  0  0  0  0  0  0  0  0  0  0  0
    0.4110    5.6284    1.3935 H   0  0  0  0  0  0  0  0  0  0  0  0
    2.3993    5.6141   -0.0294 H   0  0  0  0  0  0  0  0  0  0  0  0
    3.6140    3.5102   -0.4823 H   0  0  0  0  0  0  0  0  0  0  0  0
    7.6582   -3.0433    1.1496 H   0  0  0  0  0  0  0  0  0  0  0  0
    7.1775   -5.3737    0.2536 H   0  0  0  0  0  0  0  0  0  0  0  0
  1  2  2  0  0  0  0
  2  3  1  0  0  0  0
  2 17  1  0  0  0  0
  3  4  1  0  0  0  0
  3 30  1  0  0  0  0
  4  5  2  0  0  0  0
  4 16  1  0  0  0  0
  5  6  1  0  0  0  0
  5  7  1  0  0  0  0
  7  8  1  0  0  0  0
  7 14  2  0  0  0  0
  8  9  2  0  0  0  0
  8 13  1  0  0  0  0
  9 10  1  0  0  0  0
  9 31  1  0  0  0  0
 10 11  2  0  0  0  0
 10 32  1  0  0  0  0
 11 12  1  0  0  0  0
 12 13  2  0  0  0  0
 12 33  1  0  0  0  0
 13 34  1  0  0  0  0
 14 15  1  0  0  0  0
 14 35  1  0  0  0  0
 15 16  2  0  0  0  0
 15 36  1  0  0  0  0
 16 37  1  0  0  0  0
 17 18  2  0  0  0  0
 17 29  1  0  0  0  0
 18 19  1  0  0  0  0
 19 20  1  0  0  0  0
 19 28  1  0  0  0  0
 20 21  2  0  0  0  0
 20 38  1  0  0  0  0
 21 22  1  0  0  0  0
 21 39  1  0  0  0  0
 22 23  1  0  0  0  0
 22 27  2  0  0  0  0
 23 24  1  0  0  0  0
 23 25  1  0  0  0  0
 23 26  1  0  0  0  0
 27 28  1  0  0  0  0
 28 29  2  0  0  0  0
M  END
$$$$
