
 OpenBabel01122422393D

 49 52  0  0  0  0  0  0  0  0999 V2000
    2.3783   -1.1498   -0.5220 C   0  0  0  0  0  0  0  0  0  0  0  0
    1.1396   -0.5146   -0.1459 N   0  0  0  0  0  0  0  0  0  0  0  0
    1.1289    0.8252   -0.0016 N   0  0  0  0  0  0  0  0  0  0  0  0
   -0.1486    1.1203    0.2715 C   0  0  0  0  0  0  0  0  0  0  0  0
   -0.5887    2.5203    0.5517 C   0  0  0  0  0  0  0  0  0  0  0  0
   -1.0619    3.1171   -0.7520 C   0  0  0  0  0  0  0  0  0  0  0  0
   -2.4100    3.0434   -1.1380 C   0  0  0  0  0  0  0  0  0  0  0  0
   -2.8451    3.6508   -2.3193 C   0  0  0  0  0  0  0  0  0  0  0  0
   -1.9400    4.3378   -3.1264 C   0  0  0  0  0  0  0  0  0  0  0  0
   -0.5979    4.4099   -2.7602 C   0  0  0  0  0  0  0  0  0  0  0  0
   -0.1603    3.7999   -1.5834 C   0  0  0  0  0  0  0  0  0  0  0  0
   -0.9319   -0.0548    0.3490 C   0  0  0  0  0  0  0  0  0  0  0  0
   -0.0852   -1.1076    0.0702 C   0  0  0  0  0  0  0  0  0  0  0  0
   -0.4037   -2.4721    0.0389 N   0  0  0  0  0  0  0  0  0  0  0  0
   -1.7744   -2.9129   -0.0114 C   0  0  0  0  0  0  0  0  0  0  0  0
   -2.6865   -2.1101   -0.1455 O   0  0  0  0  0  0  0  0  0  0  0  0
   -2.0869   -4.3624    0.0234 C   0  0  0  0  0  0  0  0  0  0  0  0
   -1.3051   -5.3286    0.6655 C   0  0  0  0  0  0  0  0  0  0  0  0
   -1.7476   -6.6658    0.7041 C   0  0  0  0  0  0  0  0  0  0  0  0
   -2.9600   -7.0381    0.0988 C   0  0  0  0  0  0  0  0  0  0  0  0
   -3.4304   -8.4539    0.1506 C   0  0  0  0  0  0  0  0  0  0  0  0
   -3.1108   -9.1543    1.1076 O   0  0  0  0  0  0  0  0  0  0  0  0
   -4.2845   -8.9368   -0.9394 C   0  0  0  0  0  0  0  0  0  0  0  0
   -5.3077   -9.8596   -0.8052 C   0  0  0  0  0  0  0  0  0  0  0  0
   -5.9207  -10.0200   -2.0214 N   0  0  0  0  0  0  0  0  0  0  0  0
   -5.2961   -9.2337   -2.9521 C   0  0  0  0  0  0  0  0  0  0  0  0
   -4.2647   -8.5758   -2.3227 C   0  0  0  0  0  0  0  0  0  0  0  0
   -3.7517   -6.0548   -0.5032 C   0  0  0  0  0  0  0  0  0  0  0  0
   -3.3106   -4.7367   -0.5556 C   0  0  0  0  0  0  0  0  0  0  0  0
    3.1297   -0.3829   -0.7351 H   0  0  0  0  0  0  0  0  0  0  0  0
    2.2065   -1.7501   -1.4182 H   0  0  0  0  0  0  0  0  0  0  0  0
    2.7130   -1.7731    0.3098 H   0  0  0  0  0  0  0  0  0  0  0  0
    0.2287    3.1145    0.9747 H   0  0  0  0  0  0  0  0  0  0  0  0
   -1.4000    2.5295    1.2899 H   0  0  0  0  0  0  0  0  0  0  0  0
   -3.1362    2.5262   -0.5154 H   0  0  0  0  0  0  0  0  0  0  0  0
   -3.8923    3.5988   -2.6047 H   0  0  0  0  0  0  0  0  0  0  0  0
   -2.2809    4.8202   -4.0389 H   0  0  0  0  0  0  0  0  0  0  0  0
    0.1085    4.9483   -3.3872 H   0  0  0  0  0  0  0  0  0  0  0  0
    0.8909    3.8679   -1.3087 H   0  0  0  0  0  0  0  0  0  0  0  0
   -1.9812   -0.0880    0.6015 H   0  0  0  0  0  0  0  0  0  0  0  0
    0.3482   -3.1444   -0.0177 H   0  0  0  0  0  0  0  0  0  0  0  0
   -0.3849   -5.0694    1.1821 H   0  0  0  0  0  0  0  0  0  0  0  0
   -1.1564   -7.4191    1.2254 H   0  0  0  0  0  0  0  0  0  0  0  0
   -5.6653  -10.3968    0.0643 H   0  0  0  0  0  0  0  0  0  0  0  0
   -6.7130  -10.6243   -2.2038 H   0  0  0  0  0  0  0  0  0  0  0  0
   -5.6315   -9.2161   -3.9811 H   0  0  0  0  0  0  0  0  0  0  0  0
   -3.5804   -7.8905   -2.8079 H   0  0  0  0  0  0  0  0  0  0  0  0
   -4.7277   -6.2909   -0.9206 H   0  0  0  0  0  0  0  0  0  0  0  0
   -3.9506   -3.9964   -1.0370 H   0  0  0  0  0  0  0  0  0  0  0  0
  1  2  1  0  0  0  0
  1 30  1  0  0  0  0
  1 31  1  0  0  0  0
  1 32  1  0  0  0  0
  2  3  1  0  0  0  0
  2 13  1  0  0  0  0
  3  4  2  0  0  0  0
  4  5  1  0  0  0  0
  4 12  1  0  0  0  0
  5  6  1  0  0  0  0
  5 33  1  0  0  0  0
  5 34  1  0  0  0  0
  6  7  2  0  0  0  0
  6 11  1  0  0  0  0
  7  8  1  0  0  0  0
  7 35  1  0  0  0  0
  8  9  2  0  0  0  0
  8 36  1  0  0  0  0
  9 10  1  0  0  0  0
  9 37  1  0  0  0  0
 10 11  2  0  0  0  0
 10 38  1  0  0  0  0
 11 39  1  0  0  0  0
 12 13  2  0  0  0  0
 12 40  1  0  0  0  0
 13 14  1  0  0  0  0
 14 15  1  0  0  0  0
 14 41  1  0  0  0  0
 15 16  2  0  0  0  0
 15 17  1  0  0  0  0
 17 18  2  0  0  0  0
 17 29  1  0  0  0  0
 18 19  1  0  0  0  0
 18 42  1  0  0  0  0
 19 20  2  0  0  0  0
 19 43  1  0  0  0  0
 20 21  1  0  0  0  0
 20 28  1  0  0  0  0
 21 22  2  0  0  0  0
 21 23  1  0  0  0  0
 23 24  2  0  0  0  0
 23 27  1  0  0  0  0
 24 25  1  0  0  0  0
 24 44  1  0  0  0  0
 25 26  1  0  0  0  0
 25 45  1  0  0  0  0
 26 27  2  0  0  0  0
 26 46  1  0  0  0  0
 27 47  1  0  0  0  0
 28 29  2  0  0  0  0
 28 48  1  0  0  0  0
 29 49  1  0  0  0  0
M  END
$$$$
