
 OpenBabel01122422393D

 57 60  0  0  1  0  0  0  0  0999 V2000
    2.7434    4.8170   -2.4938 C   0  0  0  0  0  0  0  0  0  0  0  0
    1.2840    4.8365   -2.8401 C   0  0  0  0  0  0  0  0  0  0  0  0
    0.8516    4.7485   -4.1668 C   0  0  0  0  0  0  0  0  0  0  0  0
   -0.5102    4.7882   -4.4608 C   0  0  0  0  0  0  0  0  0  0  0  0
   -1.4434    4.9062   -3.4317 C   0  0  0  0  0  0  0  0  0  0  0  0
   -2.7415    4.9106   -3.7699 F   0  0  0  0  0  0  0  0  0  0  0  0
   -1.0444    4.9359   -2.0874 C   0  0  0  0  0  0  0  0  0  0  0  0
   -1.9793    4.9532   -0.9976 N   0  0  0  0  0  0  0  0  0  0  0  0
   -3.2309    5.6862   -1.1931 C   0  0  0  0  0  0  0  0  0  0  0  0
   -3.9732    5.9662    0.1032 C   0  0  0  0  0  0  0  0  0  0  0  0
   -4.1820    4.6517    0.8328 C   0  0  0  0  0  0  0  0  0  0  0  0
   -2.8369    4.0353    1.1818 C   0  0  3  0  0  0  0  0  0  0  0  0
   -2.2183    4.7351    2.3047 N   0  0  0  0  0  0  0  0  0  0  0  0
   -2.3874    4.3258    3.6066 C   0  0  0  0  0  0  0  0  0  0  0  0
   -3.1353    3.4059    3.9280 O   0  0  0  0  0  0  0  0  0  0  0  0
   -1.6384    5.1602    4.6476 C   0  0  0  0  0  0  0  0  0  0  0  0
   -0.4521    5.7243    4.0909 O   0  0  0  0  0  0  0  0  0  0  0  0
    0.2966    6.5072    4.9286 C   0  0  0  0  0  0  0  0  0  0  0  0
    0.3316    6.4022    6.3224 C   0  0  0  0  0  0  0  0  0  0  0  0
    1.1299    7.2655    7.0725 C   0  0  0  0  0  0  0  0  0  0  0  0
    1.9035    8.2317    6.4297 C   0  0  0  0  0  0  0  0  0  0  0  0
    1.9377    8.2912    5.0341 C   0  0  0  0  0  0  0  0  0  0  0  0
    2.7093    9.2029    4.3352 O   0  0  0  0  0  0  0  0  0  0  0  0
    3.9798    9.4971    4.8239 C   0  0  0  0  0  0  0  0  0  0  0  0
    4.5227   10.7235    4.4667 C   0  0  0  0  0  0  0  0  0  0  0  0
    5.7850   11.0547    4.9562 C   0  0  0  0  0  0  0  0  0  0  0  0
    6.4553   10.1565    5.7815 C   0  0  0  0  0  0  0  0  0  0  0  0
    5.8402    8.9510    6.0719 C   0  0  0  0  0  0  0  0  0  0  0  0
    4.6320    8.5932    5.5957 N   0  0  0  0  0  0  0  0  0  0  0  0
    1.1212    7.4447    4.2869 C   0  0  0  0  0  0  0  0  0  0  0  0
   -1.8431    3.9758    0.0041 C   0  0  0  0  0  0  0  0  0  0  0  0
   -0.9148    3.1654    0.0449 O   0  0  0  0  0  0  0  0  0  0  0  0
    0.3320    4.9225   -1.8120 C   0  0  0  0  0  0  0  0  0  0  0  0
    3.3683    4.7450   -3.3899 H   0  0  0  0  0  0  0  0  0  0  0  0
    2.9663    3.9561   -1.8554 H   0  0  0  0  0  0  0  0  0  0  0  0
    3.0170    5.7367   -1.9664 H   0  0  0  0  0  0  0  0  0  0  0  0
    1.5699    4.6405   -4.9762 H   0  0  0  0  0  0  0  0  0  0  0  0
   -0.8557    4.7027   -5.4866 H   0  0  0  0  0  0  0  0  0  0  0  0
   -3.8819    5.0954   -1.8472 H   0  0  0  0  0  0  0  0  0  0  0  0
   -3.0046    6.6413   -1.6814 H   0  0  0  0  0  0  0  0  0  0  0  0
   -4.9395    6.4339   -0.1149 H   0  0  0  0  0  0  0  0  0  0  0  0
   -3.4055    6.6673    0.7270 H   0  0  0  0  0  0  0  0  0  0  0  0
   -4.7467    3.9650    0.1889 H   0  0  0  0  0  0  0  0  0  0  0  0
   -4.7819    4.8136    1.7355 H   0  0  0  0  0  0  0  0  0  0  0  0
   -3.0178    2.9929    1.4815 H   0  0  0  0  0  0  0  0  0  0  0  0
   -1.5977    5.5209    2.1289 H   0  0  0  0  0  0  0  0  0  0  0  0
   -1.4050    4.4860    5.4775 H   0  0  0  0  0  0  0  0  0  0  0  0
   -2.3167    5.9587    4.9726 H   0  0  0  0  0  0  0  0  0  0  0  0
   -0.2274    5.6407    6.8548 H   0  0  0  0  0  0  0  0  0  0  0  0
    1.1717    7.1789    8.1558 H   0  0  0  0  0  0  0  0  0  0  0  0
    2.5145    8.8994    7.0289 H   0  0  0  0  0  0  0  0  0  0  0  0
    3.9733   11.4107    3.8347 H   0  0  0  0  0  0  0  0  0  0  0  0
    6.2401   12.0086    4.7033 H   0  0  0  0  0  0  0  0  0  0  0  0
    7.4307   10.3909    6.1920 H   0  0  0  0  0  0  0  0  0  0  0  0
    6.3116    8.2204    6.7224 H   0  0  0  0  0  0  0  0  0  0  0  0
    1.1208    7.5060    3.2025 H   0  0  0  0  0  0  0  0  0  0  0  0
    0.6756    4.9786   -0.7800 H   0  0  0  0  0  0  0  0  0  0  0  0
  1  2  1  0  0  0  0
  1 34  1  0  0  0  0
  1 35  1  0  0  0  0
  1 36  1  0  0  0  0
  2  3  2  0  0  0  0
  2 33  1  0  0  0  0
  3  4  1  0  0  0  0
  3 37  1  0  0  0  0
  4  5  2  0  0  0  0
  4 38  1  0  0  0  0
  5  6  1  0  0  0  0
  5  7  1  0  0  0  0
  7  8  1  0  0  0  0
  7 33  2  0  0  0  0
  8  9  1  0  0  0  0
  8 31  1  0  0  0  0
  9 10  1  0  0  0  0
  9 39  1  0  0  0  0
  9 40  1  0  0  0  0
 10 11  1  0  0  0  0
 10 41  1  0  0  0  0
 10 42  1  0  0  0  0
 11 12  1  0  0  0  0
 11 43  1  0  0  0  0
 11 44  1  0  0  0  0
 12 13  1  0  0  0  0
 12 31  1  0  0  0  0
 12 45  1  0  0  0  0
 13 14  1  0  0  0  0
 13 46  1  0  0  0  0
 14 15  2  0  0  0  0
 14 16  1  0  0  0  0
 16 17  1  0  0  0  0
 16 47  1  0  0  0  0
 16 48  1  0  0  0  0
 17 18  1  0  0  0  0
 18 19  2  0  0  0  0
 18 30  1  0  0  0  0
 19 20  1  0  0  0  0
 19 49  1  0  0  0  0
 20 21  2  0  0  0  0
 20 50  1  0  0  0  0
 21 22  1  0  0  0  0
 21 51  1  0  0  0  0
 22 23  1  0  0  0  0
 22 30  2  0  0  0  0
 23 24  1  0  0  0  0
 24 25  2  0  0  0  0
 24 29  1  0  0  0  0
 25 26  1  0  0  0  0
 25 52  1  0  0  0  0
 26 27  2  0  0  0  0
 26 53  1  0  0  0  0
 27 28  1  0  0  0  0
 27 54  1  0  0  0  0
 28 29  2  0  0  0  0
 28 55  1  0  0  0  0
 30 56  1  0  0  0  0
 31 32  2  0  0  0  0
 33 57  1  0  0  0  0
M  END
$$$$
