
 OpenBabel01122422393D

 59 62  0  0  0  0  0  0  0  0999 V2000
    3.4038    7.0245    2.2339 C   0  0  0  0  0  0  0  0  0  0  0  0
    4.2746    7.4845    1.2086 O   0  0  0  0  0  0  0  0  0  0  0  0
    4.0766    6.9759   -0.0491 C   0  0  0  0  0  0  0  0  0  0  0  0
    3.1003    6.0301   -0.3773 C   0  0  0  0  0  0  0  0  0  0  0  0
    2.9555    5.5576   -1.6909 C   0  0  0  0  0  0  0  0  0  0  0  0
    1.9244    4.5075   -2.0401 C   0  0  0  0  0  0  0  0  0  0  0  0
    0.5737    4.5922   -1.2876 C   0  0  0  0  0  0  0  0  0  0  0  0
   -0.1623    5.8727   -1.3672 N   0  0  0  0  0  0  0  0  0  0  0  0
   -0.0916    6.5560   -2.6426 C   0  0  0  0  0  0  0  0  0  0  0  0
   -0.8989    6.2877   -0.2485 C   0  0  0  0  0  0  0  0  0  0  0  0
   -0.8438    5.5533    0.7505 O   0  0  0  0  0  0  0  0  0  0  0  0
   -1.7252    7.5830   -0.1390 C   0  0  0  0  0  0  0  0  0  0  0  0
   -2.6848    7.7110    0.8360 C   0  0  0  0  0  0  0  0  0  0  0  0
   -3.1170    6.6152    1.7483 C   0  0  0  0  0  0  0  0  0  0  0  0
   -2.4540    6.4059    2.9775 C   0  0  0  0  0  0  0  0  0  0  0  0
   -3.0292    5.6087    3.9643 C   0  0  0  0  0  0  0  0  0  0  0  0
   -4.2328    4.9501    3.7228 C   0  0  0  0  0  0  0  0  0  0  0  0
   -4.8418    5.0656    2.4688 C   0  0  0  0  0  0  0  0  0  0  0  0
   -4.2889    5.8928    1.4923 C   0  0  0  0  0  0  0  0  0  0  0  0
   -3.3598    9.0824    0.9891 C   0  0  0  0  0  0  0  0  0  0  0  0
   -4.4572    9.3707    1.9809 C   0  0  0  0  0  0  0  0  0  0  0  0
   -4.4721    8.8966    3.2894 C   0  0  0  0  0  0  0  0  0  0  0  0
   -5.5009    9.2258    4.1727 C   0  0  0  0  0  0  0  0  0  0  0  0
   -6.4773   10.1366    3.7920 C   0  0  0  0  0  0  0  0  0  0  0  0
   -6.4314   10.7029    2.5223 C   0  0  0  0  0  0  0  0  0  0  0  0
   -5.4420   10.3072    1.6168 C   0  0  0  0  0  0  0  0  0  0  0  0
   -3.0489   10.1176    0.2661 N   0  0  0  0  0  0  0  0  0  0  0  0
   -2.1176    9.9583   -0.6610 N   0  0  0  0  0  0  0  0  0  0  0  0
   -1.4909    8.8021   -0.9884 C   0  0  0  0  0  0  0  0  0  0  0  0
   -0.7779    8.8766   -1.9816 O   0  0  0  0  0  0  0  0  0  0  0  0
    3.8235    6.0395   -2.6817 C   0  0  0  0  0  0  0  0  0  0  0  0
    4.8038    6.9828   -2.3694 C   0  0  0  0  0  0  0  0  0  0  0  0
    4.9261    7.4440   -1.0591 C   0  0  0  0  0  0  0  0  0  0  0  0
    5.8927    8.3644   -0.7505 O   0  0  0  0  0  0  0  0  0  0  0  0
    3.7018    7.5056    3.1699 H   0  0  0  0  0  0  0  0  0  0  0  0
    3.4957    5.9422    2.3762 H   0  0  0  0  0  0  0  0  0  0  0  0
    2.3663    7.3097    2.0277 H   0  0  0  0  0  0  0  0  0  0  0  0
    2.4317    5.6484    0.3864 H   0  0  0  0  0  0  0  0  0  0  0  0
    2.3719    3.5236   -1.8478 H   0  0  0  0  0  0  0  0  0  0  0  0
    1.7396    4.5283   -3.1206 H   0  0  0  0  0  0  0  0  0  0  0  0
    0.7415    4.3051   -0.2418 H   0  0  0  0  0  0  0  0  0  0  0  0
   -0.0987    3.8279   -1.7002 H   0  0  0  0  0  0  0  0  0  0  0  0
    0.2833    5.9116   -3.4400 H   0  0  0  0  0  0  0  0  0  0  0  0
    0.6326    7.3688   -2.5376 H   0  0  0  0  0  0  0  0  0  0  0  0
   -1.0875    6.8736   -2.9516 H   0  0  0  0  0  0  0  0  0  0  0  0
   -1.5402    6.9447    3.1997 H   0  0  0  0  0  0  0  0  0  0  0  0
   -2.5637    5.5361    4.9507 H   0  0  0  0  0  0  0  0  0  0  0  0
   -4.7063    4.3621    4.5068 H   0  0  0  0  0  0  0  0  0  0  0  0
   -5.7732    4.5373    2.2734 H   0  0  0  0  0  0  0  0  0  0  0  0
   -4.8101    6.0040    0.5341 H   0  0  0  0  0  0  0  0  0  0  0  0
   -3.6674    8.3028    3.6865 H   0  0  0  0  0  0  0  0  0  0  0  0
   -5.5078    8.7917    5.1692 H   0  0  0  0  0  0  0  0  0  0  0  0
   -7.2498   10.4283    4.4972 H   0  0  0  0  0  0  0  0  0  0  0  0
   -7.1541   11.4639    2.2395 H   0  0  0  0  0  0  0  0  0  0  0  0
   -5.4229   10.7745    0.6328 H   0  0  0  0  0  0  0  0  0  0  0  0
   -1.9357   10.7526   -1.2674 H   0  0  0  0  0  0  0  0  0  0  0  0
    3.7410    5.6858   -3.7073 H   0  0  0  0  0  0  0  0  0  0  0  0
    5.4617    7.3420   -3.1542 H   0  0  0  0  0  0  0  0  0  0  0  0
    6.3777    8.5944   -1.5574 H   0  0  0  0  0  0  0  0  0  0  0  0
  1  2  1  0  0  0  0
  1 35  1  0  0  0  0
  1 36  1  0  0  0  0
  1 37  1  0  0  0  0
  2  3  1  0  0  0  0
  3  4  2  0  0  0  0
  3 33  1  0  0  0  0
  4  5  1  0  0  0  0
  4 38  1  0  0  0  0
  5  6  1  0  0  0  0
  5 31  2  0  0  0  0
  6  7  1  0  0  0  0
  6 39  1  0  0  0  0
  6 40  1  0  0  0  0
  7  8  1  0  0  0  0
  7 41  1  0  0  0  0
  7 42  1  0  0  0  0
  8  9  1  0  0  0  0
  8 10  1  0  0  0  0
  9 43  1  0  0  0  0
  9 44  1  0  0  0  0
  9 45  1  0  0  0  0
 10 11  2  0  0  0  0
 10 12  1  0  0  0  0
 12 13  2  0  0  0  0
 12 29  1  0  0  0  0
 13 14  1  0  0  0  0
 13 20  1  0  0  0  0
 14 15  2  0  0  0  0
 14 19  1  0  0  0  0
 15 16  1  0  0  0  0
 15 46  1  0  0  0  0
 16 17  2  0  0  0  0
 16 47  1  0  0  0  0
 17 18  1  0  0  0  0
 17 48  1  0  0  0  0
 18 19  2  0  0  0  0
 18 49  1  0  0  0  0
 19 50  1  0  0  0  0
 20 21  1  0  0  0  0
 20 27  2  0  0  0  0
 21 22  2  0  0  0  0
 21 26  1  0  0  0  0
 22 23  1  0  0  0  0
 22 51  1  0  0  0  0
 23 24  2  0  0  0  0
 23 52  1  0  0  0  0
 24 25  1  0  0  0  0
 24 53  1  0  0  0  0
 25 26  2  0  0  0  0
 25 54  1  0  0  0  0
 26 55  1  0  0  0  0
 27 28  1  0  0  0  0
 28 29  1  0  0  0  0
 28 56  1  0  0  0  0
 29 30  2  0  0  0  0
 31 32  1  0  0  0  0
 31 57  1  0  0  0  0
 32 33  2  0  0  0  0
 32 58  1  0  0  0  0
 33 34  1  0  0  0  0
 34 59  1  0  0  0  0
M  END
$$$$
