
 OpenBabel01122422393D

 47 50  0  0  1  0  0  0  0  0999 V2000
    0.9600    0.4303   -0.4274 O   0  0  0  0  0  0  0  0  0  0  0  0
    2.1695    0.2794   -0.3076 C   0  0  0  0  0  0  0  0  0  0  0  0
    2.8817   -0.6585   -1.0311 N   0  0  0  0  0  0  0  0  0  0  0  0
    2.1789   -1.6235   -1.8640 C   0  0  3  0  0  0  0  0  0  0  0  0
    3.0618   -2.0505   -3.0432 C   0  0  0  0  0  0  0  0  0  0  0  0
    4.2861   -2.0577   -3.0136 O   0  0  0  0  0  0  0  0  0  0  0  0
    2.3615   -2.4636   -4.1311 O   0  0  0  0  0  0  0  0  0  0  0  0
    1.6947   -2.8298   -1.0787 C   0  0  0  0  0  0  0  0  0  0  0  0
    2.4066   -3.3870   -0.0039 C   0  0  0  0  0  0  0  0  0  0  0  0
    1.8853   -4.4845    0.6899 C   0  0  0  0  0  0  0  0  0  0  0  0
    0.6642   -5.0308    0.3082 C   0  0  0  0  0  0  0  0  0  0  0  0
    0.1655   -6.0676    0.9939 F   0  0  0  0  0  0  0  0  0  0  0  0
   -0.0353   -4.5259   -0.7761 C   0  0  0  0  0  0  0  0  0  0  0  0
    0.4936   -3.4410   -1.4648 C   0  0  0  0  0  0  0  0  0  0  0  0
   -0.1526   -2.9805   -2.5466 F   0  0  0  0  0  0  0  0  0  0  0  0
    2.9125    1.0270    0.7379 C   0  0  0  0  0  0  0  0  0  0  0  0
    2.2311    1.3298    1.9190 C   0  0  0  0  0  0  0  0  0  0  0  0
    2.9421    1.7343    3.0464 C   0  0  0  0  0  0  0  0  0  0  0  0
    4.3454    1.7656    3.0093 C   0  0  0  0  0  0  0  0  0  0  0  0
    5.0981    1.5220    4.2423 N   0  0  0  0  0  0  0  0  0  0  0  0
    6.3610    1.0048    4.0318 C   0  0  0  0  0  0  0  0  0  0  0  0
    6.6076   -0.2647    3.9139 N   0  0  0  0  0  0  0  0  0  0  0  0
    5.4792   -1.1060    4.0364 C   0  0  0  0  0  0  0  0  0  0  0  0
    5.4090   -2.3133    3.3490 C   0  0  0  0  0  0  0  0  0  0  0  0
    4.2380   -3.0779    3.4014 C   0  0  0  0  0  0  0  0  0  0  0  0
    3.1434   -2.6600    4.1681 C   0  0  0  0  0  0  0  0  0  0  0  0
    3.2038   -1.4604    4.8753 C   0  0  0  0  0  0  0  0  0  0  0  0
    4.3604   -0.6867    4.7668 C   0  0  0  0  0  0  0  0  0  0  0  0
    4.3898    0.7416    5.1600 C   0  0  0  0  0  0  0  0  0  0  0  0
    3.7991    1.1544    6.1518 O   0  0  0  0  0  0  0  0  0  0  0  0
    4.9849    1.7213    1.7578 C   0  0  0  0  0  0  0  0  0  0  0  0
    4.2717    1.3211    0.6255 C   0  0  0  0  0  0  0  0  0  0  0  0
    3.8678   -0.8245   -0.8530 H   0  0  0  0  0  0  0  0  0  0  0  0
    1.3196   -1.0884   -2.2845 H   0  0  0  0  0  0  0  0  0  0  0  0
    1.3877   -2.4311   -4.0195 H   0  0  0  0  0  0  0  0  0  0  0  0
    3.3627   -2.9725    0.3079 H   0  0  0  0  0  0  0  0  0  0  0  0
    2.4182   -4.9218    1.5283 H   0  0  0  0  0  0  0  0  0  0  0  0
   -0.9760   -4.9698   -1.0780 H   0  0  0  0  0  0  0  0  0  0  0  0
    1.1608    1.1456    2.0005 H   0  0  0  0  0  0  0  0  0  0  0  0
    2.3964    1.8661    3.9796 H   0  0  0  0  0  0  0  0  0  0  0  0
    7.1459    1.7671    3.9051 H   0  0  0  0  0  0  0  0  0  0  0  0
    6.2447   -2.6336    2.7330 H   0  0  0  0  0  0  0  0  0  0  0  0
    4.1786   -3.9987    2.8275 H   0  0  0  0  0  0  0  0  0  0  0  0
    2.2310   -3.2540    4.1841 H   0  0  0  0  0  0  0  0  0  0  0  0
    2.3419   -1.0956    5.4260 H   0  0  0  0  0  0  0  0  0  0  0  0
    6.0604    1.8478    1.6618 H   0  0  0  0  0  0  0  0  0  0  0  0
    4.8035    1.1740   -0.3104 H   0  0  0  0  0  0  0  0  0  0  0  0
  1  2  2  0  0  0  0
  2  3  1  0  0  0  0
  2 16  1  0  0  0  0
  3  4  1  0  0  0  0
  3 33  1  0  0  0  0
  4  5  1  0  0  0  0
  4  8  1  0  0  0  0
  4 34  1  0  0  0  0
  5  6  2  0  0  0  0
  5  7  1  0  0  0  0
  7 35  1  0  0  0  0
  8  9  2  0  0  0  0
  8 14  1  0  0  0  0
  9 10  1  0  0  0  0
  9 36  1  0  0  0  0
 10 11  2  0  0  0  0
 10 37  1  0  0  0  0
 11 12  1  0  0  0  0
 11 13  1  0  0  0  0
 13 14  2  0  0  0  0
 13 38  1  0  0  0  0
 14 15  1  0  0  0  0
 16 17  2  0  0  0  0
 16 32  1  0  0  0  0
 17 18  1  0  0  0  0
 17 39  1  0  0  0  0
 18 19  2  0  0  0  0
 18 40  1  0  0  0  0
 19 20  1  0  0  0  0
 19 31  1  0  0  0  0
 20 21  1  0  0  0  0
 20 29  1  0  0  0  0
 21 22  2  0  0  0  0
 21 41  1  0  0  0  0
 22 23  1  0  0  0  0
 23 24  2  0  0  0  0
 23 28  1  0  0  0  0
 24 25  1  0  0  0  0
 24 42  1  0  0  0  0
 25 26  2  0  0  0  0
 25 43  1  0  0  0  0
 26 27  1  0  0  0  0
 26 44  1  0  0  0  0
 27 28  2  0  0  0  0
 27 45  1  0  0  0  0
 28 29  1  0  0  0  0
 29 30  2  0  0  0  0
 31 32  2  0  0  0  0
 31 46  1  0  0  0  0
 32 47  1  0  0  0  0
M  END
$$$$
