
 OpenBabel01122422393D

 51 53  0  0  1  0  0  0  0  0999 V2000
    2.4043   -3.0560   -0.5791 C   0  0  0  0  0  0  0  0  0  0  0  0
    3.5267   -2.2420   -0.2304 O   0  0  0  0  0  0  0  0  0  0  0  0
    4.0319   -1.5002   -1.2600 C   0  0  0  0  0  0  0  0  0  0  0  0
    3.6093   -1.5443   -2.4127 O   0  0  0  0  0  0  0  0  0  0  0  0
    5.2124   -0.6028   -0.8159 C   0  0  3  0  0  0  0  0  0  0  0  0
    5.5938   -0.6876    0.5912 N   0  0  0  0  0  0  0  0  0  0  0  0
    4.9769    0.0806    1.5486 C   0  0  0  0  0  0  0  0  0  0  0  0
    4.0703    0.8669    1.3010 O   0  0  0  0  0  0  0  0  0  0  0  0
    5.4687   -0.0866    2.9476 C   0  0  0  0  0  0  0  0  0  0  0  0
    6.7763   -0.5080    3.2254 C   0  0  0  0  0  0  0  0  0  0  0  0
    7.2255   -0.5954    4.5490 C   0  0  0  0  0  0  0  0  0  0  0  0
    6.3718   -0.2560    5.6057 C   0  0  0  0  0  0  0  0  0  0  0  0
    6.8803   -0.3366    7.0021 C   0  0  0  0  0  0  0  0  0  0  0  0
    8.0805   -0.1919    7.2170 O   0  0  0  0  0  0  0  0  0  0  0  0
    5.9531   -0.5791    8.1450 C   0  0  0  0  0  0  0  0  0  0  0  0
    4.8111   -1.3760    7.9956 C   0  0  0  0  0  0  0  0  0  0  0  0
    3.9202   -1.5286    9.0550 C   0  0  0  0  0  0  0  0  0  0  0  0
    4.1963   -0.9373   10.2878 C   0  0  0  0  0  0  0  0  0  0  0  0
    5.3714   -0.2034   10.4659 C   0  0  0  0  0  0  0  0  0  0  0  0
    5.7430    0.3962   11.6378 O   0  0  0  0  0  0  0  0  0  0  0  0
    5.3003   -0.2590   12.8207 C   0  0  0  0  0  0  0  0  0  0  0  0
    6.2379   -0.0069    9.3888 C   0  0  0  0  0  0  0  0  0  0  0  0
    5.0772    0.1961    5.3217 C   0  0  0  0  0  0  0  0  0  0  0  0
    4.6238    0.2624    4.0036 C   0  0  0  0  0  0  0  0  0  0  0  0
    6.4379   -0.8638   -1.6740 C   0  0  0  0  0  0  0  0  0  0  0  0
    7.0337    0.1699   -2.4136 C   0  0  0  0  0  0  0  0  0  0  0  0
    8.1399   -0.0949   -3.2251 C   0  0  0  0  0  0  0  0  0  0  0  0
    8.6540   -1.3862   -3.2927 C   0  0  0  0  0  0  0  0  0  0  0  0
    9.7066   -1.6348   -4.0828 F   0  0  0  0  0  0  0  0  0  0  0  0
    8.0974   -2.4181   -2.5526 C   0  0  0  0  0  0  0  0  0  0  0  0
    6.9998   -2.1462   -1.7456 C   0  0  0  0  0  0  0  0  0  0  0  0
    6.4816   -3.1377   -1.0066 F   0  0  0  0  0  0  0  0  0  0  0  0
    1.8841   -3.3237    0.3442 H   0  0  0  0  0  0  0  0  0  0  0  0
    2.7462   -3.9744   -1.0661 H   0  0  0  0  0  0  0  0  0  0  0  0
    1.6970   -2.5218   -1.2216 H   0  0  0  0  0  0  0  0  0  0  0  0
    4.8598    0.4232   -0.9917 H   0  0  0  0  0  0  0  0  0  0  0  0
    6.1239   -1.4995    0.8757 H   0  0  0  0  0  0  0  0  0  0  0  0
    7.4772   -0.7347    2.4255 H   0  0  0  0  0  0  0  0  0  0  0  0
    8.2484   -0.9112    4.7500 H   0  0  0  0  0  0  0  0  0  0  0  0
    4.5905   -1.8733    7.0544 H   0  0  0  0  0  0  0  0  0  0  0  0
    3.0099   -2.1069    8.9185 H   0  0  0  0  0  0  0  0  0  0  0  0
    3.4760   -1.0592   11.0906 H   0  0  0  0  0  0  0  0  0  0  0  0
    5.8487    0.1643   13.6658 H   0  0  0  0  0  0  0  0  0  0  0  0
    5.5151   -1.3386   12.7900 H   0  0  0  0  0  0  0  0  0  0  0  0
    4.2345   -0.0814   12.9950 H   0  0  0  0  0  0  0  0  0  0  0  0
    7.1362    0.5933    9.5231 H   0  0  0  0  0  0  0  0  0  0  0  0
    4.4044    0.5177    6.1162 H   0  0  0  0  0  0  0  0  0  0  0  0
    3.6066    0.6021    3.8059 H   0  0  0  0  0  0  0  0  0  0  0  0
    6.6360    1.1822   -2.3708 H   0  0  0  0  0  0  0  0  0  0  0  0
    8.5993    0.6967   -3.8102 H   0  0  0  0  0  0  0  0  0  0  0  0
    8.5100   -3.4184   -2.6064 H   0  0  0  0  0  0  0  0  0  0  0  0
  1  2  1  0  0  0  0
  1 33  1  0  0  0  0
  1 34  1  0  0  0  0
  1 35  1  0  0  0  0
  2  3  1  0  0  0  0
  3  4  2  0  0  0  0
  3  5  1  0  0  0  0
  5  6  1  0  0  0  0
  5 25  1  0  0  0  0
  5 36  1  0  0  0  0
  6  7  1  0  0  0  0
  6 37  1  0  0  0  0
  7  8  2  0  0  0  0
  7  9  1  0  0  0  0
  9 10  2  0  0  0  0
  9 24  1  0  0  0  0
 10 11  1  0  0  0  0
 10 38  1  0  0  0  0
 11 12  2  0  0  0  0
 11 39  1  0  0  0  0
 12 13  1  0  0  0  0
 12 23  1  0  0  0  0
 13 14  2  0  0  0  0
 13 15  1  0  0  0  0
 15 16  2  0  0  0  0
 15 22  1  0  0  0  0
 16 17  1  0  0  0  0
 16 40  1  0  0  0  0
 17 18  2  0  0  0  0
 17 41  1  0  0  0  0
 18 19  1  0  0  0  0
 18 42  1  0  0  0  0
 19 20  1  0  0  0  0
 19 22  2  0  0  0  0
 20 21  1  0  0  0  0
 21 43  1  0  0  0  0
 21 44  1  0  0  0  0
 21 45  1  0  0  0  0
 22 46  1  0  0  0  0
 23 24  2  0  0  0  0
 23 47  1  0  0  0  0
 24 48  1  0  0  0  0
 25 26  2  0  0  0  0
 25 31  1  0  0  0  0
 26 27  1  0  0  0  0
 26 49  1  0  0  0  0
 27 28  2  0  0  0  0
 27 50  1  0  0  0  0
 28 29  1  0  0  0  0
 28 30  1  0  0  0  0
 30 31  2  0  0  0  0
 30 51  1  0  0  0  0
 31 32  1  0  0  0  0
M  END
$$$$
