
 OpenBabel01122422353D

 47 50  0  0  0  0  0  0  0  0999 V2000
    2.6216    0.0667    1.5071 O   0  0  0  0  0  0  0  0  0  0  0  0
    2.3685   -0.1594    0.3352 C   0  0  0  0  0  0  0  0  0  0  0  0
    1.4189    0.4482   -0.4137 O   0  0  0  0  0  0  0  0  0  0  0  0
    0.6354    1.4689    0.2154 C   0  0  0  0  0  0  0  0  0  0  0  0
    0.7484    2.7438   -0.5853 C   0  0  0  0  0  0  0  0  0  0  0  0
    0.4014    2.7672   -1.9449 C   0  0  0  0  0  0  0  0  0  0  0  0
    0.4830    3.9528   -2.6778 C   0  0  0  0  0  0  0  0  0  0  0  0
    0.9125    5.1263   -2.0609 C   0  0  0  0  0  0  0  0  0  0  0  0
    1.2647    5.1142   -0.7116 C   0  0  0  0  0  0  0  0  0  0  0  0
    1.1838    3.9294    0.0220 C   0  0  0  0  0  0  0  0  0  0  0  0
    3.0939   -1.1724   -0.4818 C   0  0  0  0  0  0  0  0  0  0  0  0
    2.7385   -1.4328   -1.8114 C   0  0  0  0  0  0  0  0  0  0  0  0
    3.4301   -2.3765   -2.5738 C   0  0  0  0  0  0  0  0  0  0  0  0
    3.0966   -2.6706   -3.9104 N   0  0  0  0  0  0  0  0  0  0  0  0
    2.0302   -2.1609   -4.6330 C   0  0  0  0  0  0  0  0  0  0  0  0
    1.1589   -1.3974   -4.2318 O   0  0  0  0  0  0  0  0  0  0  0  0
    1.9914   -2.6061   -6.0587 C   0  0  0  0  0  0  0  0  0  0  0  0
    0.9854   -2.1362   -6.8892 C   0  0  0  0  0  0  0  0  0  0  0  0
    1.0481   -2.4587   -8.2368 C   0  0  0  0  0  0  0  0  0  0  0  0
    2.1157   -3.2280   -8.7162 C   0  0  0  0  0  0  0  0  0  0  0  0
    2.2486   -3.5024  -10.0846 C   0  0  0  0  0  0  0  0  0  0  0  0
    3.3331   -4.2502  -10.5103 C   0  0  0  0  0  0  0  0  0  0  0  0
    4.2568   -4.7609   -9.6751 N   0  0  0  0  0  0  0  0  0  0  0  0
    4.0871   -4.4743   -8.3653 C   0  0  0  0  0  0  0  0  0  0  0  0
    5.0623   -5.0265   -7.5879 O   0  0  0  0  0  0  0  0  0  0  0  0
    3.0719   -3.7039   -7.7954 C   0  0  0  0  0  0  0  0  0  0  0  0
    3.0090   -3.4043   -6.4725 N   0  0  0  0  0  0  0  0  0  0  0  0
    4.5060   -3.0552   -1.9921 C   0  0  0  0  0  0  0  0  0  0  0  0
    4.8644   -2.8116   -0.6625 C   0  0  0  0  0  0  0  0  0  0  0  0
    4.1563   -1.8762    0.0955 C   0  0  0  0  0  0  0  0  0  0  0  0
    0.9159    1.6367    1.2607 H   0  0  0  0  0  0  0  0  0  0  0  0
   -0.4112    1.1415    0.2093 H   0  0  0  0  0  0  0  0  0  0  0  0
    0.0695    1.8561   -2.4401 H   0  0  0  0  0  0  0  0  0  0  0  0
    0.2130    3.9592   -3.7308 H   0  0  0  0  0  0  0  0  0  0  0  0
    0.9755    6.0494   -2.6312 H   0  0  0  0  0  0  0  0  0  0  0  0
    1.6024    6.0284   -0.2312 H   0  0  0  0  0  0  0  0  0  0  0  0
    1.4646    3.9378    1.0729 H   0  0  0  0  0  0  0  0  0  0  0  0
    1.9165   -0.8746   -2.2429 H   0  0  0  0  0  0  0  0  0  0  0  0
    3.6875   -3.3215   -4.4247 H   0  0  0  0  0  0  0  0  0  0  0  0
    0.1899   -1.5069   -6.5017 H   0  0  0  0  0  0  0  0  0  0  0  0
    0.2785   -2.0824   -8.9069 H   0  0  0  0  0  0  0  0  0  0  0  0
    1.5360   -3.1235  -10.8106 H   0  0  0  0  0  0  0  0  0  0  0  0
    3.4897   -4.4570  -11.5655 H   0  0  0  0  0  0  0  0  0  0  0  0
    5.5844   -5.4803   -8.2727 H   0  0  0  0  0  0  0  0  0  0  0  0
    5.0782   -3.7840   -2.5641 H   0  0  0  0  0  0  0  0  0  0  0  0
    5.6958   -3.3518   -0.2143 H   0  0  0  0  0  0  0  0  0  0  0  0
    4.4364   -1.6964    1.1309 H   0  0  0  0  0  0  0  0  0  0  0  0
  1  2  2  0  0  0  0
  2  3  1  0  0  0  0
  2 11  1  0  0  0  0
  3  4  1  0  0  0  0
  4  5  1  0  0  0  0
  4 31  1  0  0  0  0
  4 32  1  0  0  0  0
  5  6  2  0  0  0  0
  5 10  1  0  0  0  0
  6  7  1  0  0  0  0
  6 33  1  0  0  0  0
  7  8  2  0  0  0  0
  7 34  1  0  0  0  0
  8  9  1  0  0  0  0
  8 35  1  0  0  0  0
  9 10  2  0  0  0  0
  9 36  1  0  0  0  0
 10 37  1  0  0  0  0
 11 12  2  0  0  0  0
 11 30  1  0  0  0  0
 12 13  1  0  0  0  0
 12 38  1  0  0  0  0
 13 14  1  0  0  0  0
 13 28  2  0  0  0  0
 14 15  1  0  0  0  0
 14 39  1  0  0  0  0
 15 16  2  0  0  0  0
 15 17  1  0  0  0  0
 17 18  2  0  0  0  0
 17 27  1  0  0  0  0
 18 19  1  0  0  0  0
 18 40  1  0  0  0  0
 19 20  2  0  0  0  0
 19 41  1  0  0  0  0
 20 21  1  0  0  0  0
 20 26  1  0  0  0  0
 21 22  2  0  0  0  0
 21 42  1  0  0  0  0
 22 23  1  0  0  0  0
 22 43  1  0  0  0  0
 23 24  2  0  0  0  0
 24 25  1  0  0  0  0
 24 26  1  0  0  0  0
 25 44  1  0  0  0  0
 26 27  2  0  0  0  0
 28 29  1  0  0  0  0
 28 45  1  0  0  0  0
 29 30  2  0  0  0  0
 29 46  1  0  0  0  0
 30 47  1  0  0  0  0
M  END
$$$$
