
 OpenBabel01122422353D

 42 45  0  0  0  0  0  0  0  0999 V2000
    1.0360    0.2120   -0.2750 O   0  0  0  0  0  0  0  0  0  0  0  0
    2.2231    0.0922    0.0177 C   0  0  0  0  0  0  0  0  0  0  0  0
    2.8754   -1.0942    0.3084 N   0  0  0  0  0  0  0  0  0  0  0  0
    2.2672   -2.3341    0.3242 C   0  0  0  0  0  0  0  0  0  0  0  0
    1.0084   -2.6472   -0.1204 C   0  0  0  0  0  0  0  0  0  0  0  0
    0.7977   -3.9845    0.1174 N   0  0  0  0  0  0  0  0  0  0  0  0
   -0.3750   -4.7341   -0.1793 C   0  0  0  0  0  0  0  0  0  0  0  0
   -1.4342   -4.1577   -0.8966 C   0  0  0  0  0  0  0  0  0  0  0  0
   -2.5783   -4.9052   -1.1859 C   0  0  0  0  0  0  0  0  0  0  0  0
   -2.6887   -6.2331   -0.7569 C   0  0  0  0  0  0  0  0  0  0  0  0
   -3.9252   -7.0462   -1.0629 C   0  0  0  0  0  0  0  0  0  0  0  0
   -4.8653   -6.3618   -1.7743 F   0  0  0  0  0  0  0  0  0  0  0  0
   -3.6486   -8.1622   -1.7926 F   0  0  0  0  0  0  0  0  0  0  0  0
   -4.5565   -7.4812    0.0625 F   0  0  0  0  0  0  0  0  0  0  0  0
   -1.6295   -6.8055   -0.0342 C   0  0  0  0  0  0  0  0  0  0  0  0
   -0.4784   -6.0638    0.2485 C   0  0  0  0  0  0  0  0  0  0  0  0
    1.8872   -4.5558    0.6998 N   0  0  0  0  0  0  0  0  0  0  0  0
    2.7738   -3.5586    0.7959 C   0  0  0  0  0  0  0  0  0  0  0  0
    3.0863    1.2747    0.1430 C   0  0  0  0  0  0  0  0  0  0  0  0
    4.4096    1.1958    0.3837 N   0  0  0  0  0  0  0  0  0  0  0  0
    4.8220    2.4912    0.4857 N   0  0  0  0  0  0  0  0  0  0  0  0
    6.1652    2.8095    0.7955 C   0  0  0  0  0  0  0  0  0  0  0  0
    6.5718    4.1194    1.0663 C   0  0  0  0  0  0  0  0  0  0  0  0
    7.9038    4.3661    1.3924 C   0  0  0  0  0  0  0  0  0  0  0  0
    8.7841    3.2976    1.4260 C   0  0  0  0  0  0  0  0  0  0  0  0
    8.4249    2.0232    1.1611 N   0  0  0  0  0  0  0  0  0  0  0  0
    7.1225    1.8039    0.8545 C   0  0  0  0  0  0  0  0  0  0  0  0
    3.7819    3.3691    0.2829 C   0  0  0  0  0  0  0  0  0  0  0  0
    2.6583    2.6181    0.0546 C   0  0  0  0  0  0  0  0  0  0  0  0
    3.8440   -1.0098    0.6038 H   0  0  0  0  0  0  0  0  0  0  0  0
    0.2507   -2.0270   -0.5711 H   0  0  0  0  0  0  0  0  0  0  0  0
   -1.3992   -3.1355   -1.2612 H   0  0  0  0  0  0  0  0  0  0  0  0
   -3.3843   -4.4398   -1.7531 H   0  0  0  0  0  0  0  0  0  0  0  0
   -1.6991   -7.8343    0.3130 H   0  0  0  0  0  0  0  0  0  0  0  0
    0.3248   -6.5327    0.8144 H   0  0  0  0  0  0  0  0  0  0  0  0
    3.7422   -3.7683    1.2318 H   0  0  0  0  0  0  0  0  0  0  0  0
    5.8838    4.9585    1.0545 H   0  0  0  0  0  0  0  0  0  0  0  0
    8.2458    5.3695    1.6224 H   0  0  0  0  0  0  0  0  0  0  0  0
    9.8313    3.4421    1.6771 H   0  0  0  0  0  0  0  0  0  0  0  0
    6.8846    0.7639    0.6464 H   0  0  0  0  0  0  0  0  0  0  0  0
    3.9104    4.4404    0.3124 H   0  0  0  0  0  0  0  0  0  0  0  0
    1.6535    2.9734   -0.1314 H   0  0  0  0  0  0  0  0  0  0  0  0
  1  2  2  0  0  0  0
  2  3  1  0  0  0  0
  2 19  1  0  0  0  0
  3  4  1  0  0  0  0
  3 30  1  0  0  0  0
  4  5  2  0  0  0  0
  4 18  1  0  0  0  0
  5  6  1  0  0  0  0
  5 31  1  0  0  0  0
  6  7  1  0  0  0  0
  6 17  1  0  0  0  0
  7  8  2  0  0  0  0
  7 16  1  0  0  0  0
  8  9  1  0  0  0  0
  8 32  1  0  0  0  0
  9 10  2  0  0  0  0
  9 33  1  0  0  0  0
 10 11  1  0  0  0  0
 10 15  1  0  0  0  0
 11 12  1  0  0  0  0
 11 13  1  0  0  0  0
 11 14  1  0  0  0  0
 15 16  2  0  0  0  0
 15 34  1  0  0  0  0
 16 35  1  0  0  0  0
 17 18  2  0  0  0  0
 18 36  1  0  0  0  0
 19 20  2  0  0  0  0
 19 29  1  0  0  0  0
 20 21  1  0  0  0  0
 21 22  1  0  0  0  0
 21 28  1  0  0  0  0
 22 23  2  0  0  0  0
 22 27  1  0  0  0  0
 23 24  1  0  0  0  0
 23 37  1  0  0  0  0
 24 25  2  0  0  0  0
 24 38  1  0  0  0  0
 25 26  1  0  0  0  0
 25 39  1  0  0  0  0
 26 27  2  0  0  0  0
 27 40  1  0  0  0  0
 28 29  2  0  0  0  0
 28 41  1  0  0  0  0
 29 42  1  0  0  0  0
M  END
$$$$
