
 OpenBabel01122422393D

 46 49  0  0  0  0  0  0  0  0999 V2000
    6.7480    3.0462    2.2368 N   0  0  0  0  0  0  0  0  0  0  0  0
    6.2144    2.0960    1.6025 C   0  0  0  0  0  0  0  0  0  0  0  0
    5.5712    0.9506    0.8378 C   0  0  0  0  0  0  0  0  0  0  0  0
    4.3843    1.1600    0.2044 C   0  0  0  0  0  0  0  0  0  0  0  0
    3.6843    2.3816    0.2494 N   0  0  0  0  0  0  0  0  0  0  0  0
    2.3884    2.6451   -0.2010 C   0  0  0  0  0  0  0  0  0  0  0  0
    1.5904    1.7892   -0.5630 O   0  0  0  0  0  0  0  0  0  0  0  0
    2.1112    4.0132   -0.2403 N   0  0  0  0  0  0  0  0  0  0  0  0
    0.8644    4.5246   -0.7069 C   0  0  0  0  0  0  0  0  0  0  0  0
    0.8747    5.6683   -1.5094 C   0  0  0  0  0  0  0  0  0  0  0  0
   -0.3135    6.1452   -2.0681 C   0  0  0  0  0  0  0  0  0  0  0  0
   -1.5263    5.5192   -1.7751 C   0  0  0  0  0  0  0  0  0  0  0  0
   -1.5798    4.4131   -0.9152 C   0  0  0  0  0  0  0  0  0  0  0  0
   -2.8972    3.8383   -0.5908 C   0  0  0  0  0  0  0  0  0  0  0  0
   -4.0663    4.3063   -0.9979 N   0  0  0  0  0  0  0  0  0  0  0  0
   -5.0260    3.5004   -0.4465 C   0  0  0  0  0  0  0  0  0  0  0  0
   -4.4490    2.5147    0.3136 C   0  0  0  0  0  0  0  0  0  0  0  0
   -3.1042    2.7335    0.2052 N   0  0  0  0  0  0  0  0  0  0  0  0
   -0.3668    3.9170   -0.3975 C   0  0  0  0  0  0  0  0  0  0  0  0
    3.8754    0.0795   -0.6164 C   0  0  0  0  0  0  0  0  0  0  0  0
    4.5443   -1.0716   -0.7381 C   0  0  0  0  0  0  0  0  0  0  0  0
    5.7599   -1.2883   -0.1139 N   0  0  0  0  0  0  0  0  0  0  0  0
    6.4324   -2.5356   -0.2447 C   0  0  0  0  0  0  0  0  0  0  0  0
    5.7316   -3.7296   -0.0426 C   0  0  0  0  0  0  0  0  0  0  0  0
    6.4100   -4.9471   -0.0466 C   0  0  0  0  0  0  0  0  0  0  0  0
    7.7781   -4.9826   -0.3005 C   0  0  0  0  0  0  0  0  0  0  0  0
    8.4736   -3.8026   -0.5578 C   0  0  0  0  0  0  0  0  0  0  0  0
    7.8046   -2.5816   -0.5218 C   0  0  0  0  0  0  0  0  0  0  0  0
    6.3418   -0.3040    0.6973 C   0  0  0  0  0  0  0  0  0  0  0  0
    7.4000   -0.4254    1.3128 O   0  0  0  0  0  0  0  0  0  0  0  0
    4.0835    3.1353    0.7960 H   0  0  0  0  0  0  0  0  0  0  0  0
    2.9093    4.6166   -0.3853 H   0  0  0  0  0  0  0  0  0  0  0  0
    1.8038    6.1710   -1.7642 H   0  0  0  0  0  0  0  0  0  0  0  0
   -0.3016    6.9972   -2.7438 H   0  0  0  0  0  0  0  0  0  0  0  0
   -2.4450    5.9025   -2.2209 H   0  0  0  0  0  0  0  0  0  0  0  0
   -6.0787    3.6729   -0.6235 H   0  0  0  0  0  0  0  0  0  0  0  0
   -4.8615    1.7061    0.9002 H   0  0  0  0  0  0  0  0  0  0  0  0
   -2.3800    2.1867    0.6437 H   0  0  0  0  0  0  0  0  0  0  0  0
   -0.3700    3.0602    0.2681 H   0  0  0  0  0  0  0  0  0  0  0  0
    2.9615    0.1920   -1.1900 H   0  0  0  0  0  0  0  0  0  0  0  0
    4.1639   -1.8581   -1.3885 H   0  0  0  0  0  0  0  0  0  0  0  0
    4.6716   -3.7188    0.2005 H   0  0  0  0  0  0  0  0  0  0  0  0
    5.8740   -5.8660    0.1785 H   0  0  0  0  0  0  0  0  0  0  0  0
    8.3115   -5.9301   -0.2854 H   0  0  0  0  0  0  0  0  0  0  0  0
    9.5402   -3.8266   -0.7641 H   0  0  0  0  0  0  0  0  0  0  0  0
    8.3623   -1.6681   -0.7169 H   0  0  0  0  0  0  0  0  0  0  0  0
  1  2  3  0  0  0  0
  2  3  1  0  0  0  0
  3  4  2  0  0  0  0
  3 29  1  0  0  0  0
  4  5  1  0  0  0  0
  4 20  1  0  0  0  0
  5  6  1  0  0  0  0
  5 31  1  0  0  0  0
  6  7  2  0  0  0  0
  6  8  1  0  0  0  0
  8  9  1  0  0  0  0
  8 32  1  0  0  0  0
  9 10  2  0  0  0  0
  9 19  1  0  0  0  0
 10 11  1  0  0  0  0
 10 33  1  0  0  0  0
 11 12  2  0  0  0  0
 11 34  1  0  0  0  0
 12 13  1  0  0  0  0
 12 35  1  0  0  0  0
 13 14  1  0  0  0  0
 13 19  2  0  0  0  0
 14 15  2  0  0  0  0
 14 18  1  0  0  0  0
 15 16  1  0  0  0  0
 16 17  2  0  0  0  0
 16 36  1  0  0  0  0
 17 18  1  0  0  0  0
 17 37  1  0  0  0  0
 18 38  1  0  0  0  0
 19 39  1  0  0  0  0
 20 21  2  0  0  0  0
 20 40  1  0  0  0  0
 21 22  1  0  0  0  0
 21 41  1  0  0  0  0
 22 23  1  0  0  0  0
 22 29  1  0  0  0  0
 23 24  2  0  0  0  0
 23 28  1  0  0  0  0
 24 25  1  0  0  0  0
 24 42  1  0  0  0  0
 25 26  2  0  0  0  0
 25 43  1  0  0  0  0
 26 27  1  0  0  0  0
 26 44  1  0  0  0  0
 27 28  2  0  0  0  0
 27 45  1  0  0  0  0
 28 46  1  0  0  0  0
 29 30  2  0  0  0  0
M  END
$$$$
