
 OpenBabel01122422393D

 45 48  0  0  0  0  0  0  0  0999 V2000
    3.1463   -0.9083   -2.1490 O   0  0  0  0  0  0  0  0  0  0  0  0
    3.3593   -0.3767   -1.0628 C   0  0  0  0  0  0  0  0  0  0  0  0
    2.9383    0.8928   -0.7558 N   0  0  0  0  0  0  0  0  0  0  0  0
    2.2616    1.7143   -1.7308 C   0  0  0  0  0  0  0  0  0  0  0  0
    3.2199    2.5276   -2.5695 C   0  0  0  0  0  0  0  0  0  0  0  0
    3.7702    1.9867   -3.7285 C   0  0  0  0  0  0  0  0  0  0  0  0
    4.5582    2.8003   -4.5383 C   0  0  0  0  0  0  0  0  0  0  0  0
    5.1156    2.4085   -5.7347 O   0  0  0  0  0  0  0  0  0  0  0  0
    4.4556    1.5123   -6.5466 C   0  0  0  0  0  0  0  0  0  0  0  0
    3.0674    1.4193   -6.6616 C   0  0  0  0  0  0  0  0  0  0  0  0
    2.5141    0.4488   -7.4895 C   0  0  0  0  0  0  0  0  0  0  0  0
    1.1821    0.3196   -7.5497 F   0  0  0  0  0  0  0  0  0  0  0  0
    3.3171   -0.3913   -8.2522 C   0  0  0  0  0  0  0  0  0  0  0  0
    4.7024   -0.2536   -8.1937 C   0  0  0  0  0  0  0  0  0  0  0  0
    5.2696    0.6975   -7.3412 C   0  0  0  0  0  0  0  0  0  0  0  0
    4.8697    4.0861   -4.1130 C   0  0  0  0  0  0  0  0  0  0  0  0
    4.3280    4.5272   -2.9196 C   0  0  0  0  0  0  0  0  0  0  0  0
    3.5024    3.7862   -2.1490 N   0  0  0  0  0  0  0  0  0  0  0  0
    4.0924   -1.0463   -0.0041 C   0  0  0  0  0  0  0  0  0  0  0  0
    4.7349   -2.2584   -0.1029 C   0  0  0  0  0  0  0  0  0  0  0  0
    5.2929   -2.4782    1.1298 N   0  0  0  0  0  0  0  0  0  0  0  0
    6.0941   -3.5583    1.5721 C   0  0  0  0  0  0  0  0  0  0  0  0
    6.0199   -3.9149    2.9325 C   0  0  0  0  0  0  0  0  0  0  0  0
    6.7435   -5.0038    3.4233 C   0  0  0  0  0  0  0  0  0  0  0  0
    7.5668   -5.7332    2.5718 C   0  0  0  0  0  0  0  0  0  0  0  0
    7.6726   -5.3694    1.2306 C   0  0  0  0  0  0  0  0  0  0  0  0
    6.9437   -4.2863    0.7216 C   0  0  0  0  0  0  0  0  0  0  0  0
    7.2996   -3.8630   -0.9183 Cl  0  0  0  0  0  0  0  0  0  0  0  0
    4.8939   -1.4904    1.9760 N   0  0  0  0  0  0  0  0  0  0  0  0
    4.2233   -0.5808    1.2775 N   0  0  0  0  0  0  0  0  0  0  0  0
    3.2752    1.3236    0.0975 H   0  0  0  0  0  0  0  0  0  0  0  0
    1.5920    2.3851   -1.1823 H   0  0  0  0  0  0  0  0  0  0  0  0
    1.6348    1.0895   -2.3787 H   0  0  0  0  0  0  0  0  0  0  0  0
    3.5589    0.9562   -3.9967 H   0  0  0  0  0  0  0  0  0  0  0  0
    2.4002    2.0720   -6.1102 H   0  0  0  0  0  0  0  0  0  0  0  0
    2.8579   -1.1396   -8.8902 H   0  0  0  0  0  0  0  0  0  0  0  0
    5.3399   -0.8885   -8.8035 H   0  0  0  0  0  0  0  0  0  0  0  0
    6.3513    0.7994   -7.2916 H   0  0  0  0  0  0  0  0  0  0  0  0
    5.5168    4.7291   -4.6982 H   0  0  0  0  0  0  0  0  0  0  0  0
    4.5427    5.5229   -2.5423 H   0  0  0  0  0  0  0  0  0  0  0  0
    4.7925   -2.9555   -0.9242 H   0  0  0  0  0  0  0  0  0  0  0  0
    5.3710   -3.3735    3.6212 H   0  0  0  0  0  0  0  0  0  0  0  0
    6.6617   -5.2836    4.4713 H   0  0  0  0  0  0  0  0  0  0  0  0
    8.1400   -6.5748    2.9528 H   0  0  0  0  0  0  0  0  0  0  0  0
    8.3491   -5.9256    0.5843 H   0  0  0  0  0  0  0  0  0  0  0  0
  1  2  2  0  0  0  0
  2  3  1  0  0  0  0
  2 19  1  0  0  0  0
  3  4  1  0  0  0  0
  3 31  1  0  0  0  0
  4  5  1  0  0  0  0
  4 32  1  0  0  0  0
  4 33  1  0  0  0  0
  5  6  2  0  0  0  0
  5 18  1  0  0  0  0
  6  7  1  0  0  0  0
  6 34  1  0  0  0  0
  7  8  1  0  0  0  0
  7 16  2  0  0  0  0
  8  9  1  0  0  0  0
  9 10  2  0  0  0  0
  9 15  1  0  0  0  0
 10 11  1  0  0  0  0
 10 35  1  0  0  0  0
 11 12  1  0  0  0  0
 11 13  2  0  0  0  0
 13 14  1  0  0  0  0
 13 36  1  0  0  0  0
 14 15  2  0  0  0  0
 14 37  1  0  0  0  0
 15 38  1  0  0  0  0
 16 17  1  0  0  0  0
 16 39  1  0  0  0  0
 17 18  2  0  0  0  0
 17 40  1  0  0  0  0
 19 20  2  0  0  0  0
 19 30  1  0  0  0  0
 20 21  1  0  0  0  0
 20 41  1  0  0  0  0
 21 22  1  0  0  0  0
 21 29  1  0  0  0  0
 22 23  2  0  0  0  0
 22 27  1  0  0  0  0
 23 24  1  0  0  0  0
 23 42  1  0  0  0  0
 24 25  2  0  0  0  0
 24 43  1  0  0  0  0
 25 26  1  0  0  0  0
 25 44  1  0  0  0  0
 26 27  2  0  0  0  0
 26 45  1  0  0  0  0
 27 28  1  0  0  0  0
 29 30  2  0  0  0  0
M  END
$$$$
