
 OpenBabel01122422393D

 46 49  0  0  0  0  0  0  0  0999 V2000
    1.4160   -0.6624   -0.1124 O   0  0  0  0  0  0  0  0  0  0  0  0
    2.6373   -0.4836   -0.1054 C   0  0  0  0  0  0  0  0  0  0  0  0
    3.3320   -0.3679    1.0864 N   0  0  0  0  0  0  0  0  0  0  0  0
    2.5694   -0.2920    2.3192 C   0  0  0  0  0  0  0  0  0  0  0  0
    3.4270   -0.3742    3.5549 C   0  0  0  0  0  0  0  0  0  0  0  0
    3.9648    0.7830    4.1369 C   0  0  0  0  0  0  0  0  0  0  0  0
    4.7507    0.7022    5.2925 C   0  0  0  0  0  0  0  0  0  0  0  0
    5.0139   -0.5369    5.8804 C   0  0  0  0  0  0  0  0  0  0  0  0
    5.8773   -0.6273    7.0712 C   0  0  0  0  0  0  0  0  0  0  0  0
    5.3266   -0.5412    8.2977 C   0  0  0  0  0  0  0  0  0  0  0  0
    6.1112   -0.6231    9.4336 N   0  0  0  0  0  0  0  0  0  0  0  0
    7.4671   -0.7920    9.4057 C   0  0  0  0  0  0  0  0  0  0  0  0
    8.1477   -0.8578   10.4291 O   0  0  0  0  0  0  0  0  0  0  0  0
    8.0866   -0.9101    8.0591 C   0  0  0  0  0  0  0  0  0  0  0  0
    7.3107   -0.8363    6.9700 C   0  0  0  0  0  0  0  0  0  0  0  0
    4.4748   -1.6951    5.3077 C   0  0  0  0  0  0  0  0  0  0  0  0
    3.6928   -1.6151    4.1520 C   0  0  0  0  0  0  0  0  0  0  0  0
    3.3303   -0.2362   -1.4126 C   0  0  0  0  0  0  0  0  0  0  0  0
    2.5109    0.1444   -2.5085 C   0  0  0  0  0  0  0  0  0  0  0  0
    1.1354    0.1544   -2.4668 O   0  0  0  0  0  0  0  0  0  0  0  0
    3.0483    0.5257   -3.7222 C   0  0  0  0  0  0  0  0  0  0  0  0
    4.4185    0.7028   -3.8194 C   0  0  0  0  0  0  0  0  0  0  0  0
    5.2543    0.3175   -2.7677 C   0  0  0  0  0  0  0  0  0  0  0  0
    6.6290    0.5065   -2.9146 C   0  0  0  0  0  0  0  0  0  0  0  0
    7.5074   -0.3475   -2.2691 C   0  0  0  0  0  0  0  0  0  0  0  0
    7.0275   -1.1606   -1.2528 C   0  0  0  0  0  0  0  0  0  0  0  0
    5.6875   -1.0591   -0.8488 C   0  0  0  0  0  0  0  0  0  0  0  0
    4.7443   -0.3288   -1.6197 C   0  0  0  0  0  0  0  0  0  0  0  0
    4.2663    0.0203    1.0849 H   0  0  0  0  0  0  0  0  0  0  0  0
    1.8207   -1.0942    2.3285 H   0  0  0  0  0  0  0  0  0  0  0  0
    2.0071    0.6511    2.3135 H   0  0  0  0  0  0  0  0  0  0  0  0
    3.7745    1.7596    3.6968 H   0  0  0  0  0  0  0  0  0  0  0  0
    5.1615    1.6136    5.7245 H   0  0  0  0  0  0  0  0  0  0  0  0
    4.2640   -0.4109    8.4511 H   0  0  0  0  0  0  0  0  0  0  0  0
    5.6829   -0.5634   10.3447 H   0  0  0  0  0  0  0  0  0  0  0  0
    9.1547   -1.0483    8.0222 H   0  0  0  0  0  0  0  0  0  0  0  0
    7.7523   -0.9015    5.9725 H   0  0  0  0  0  0  0  0  0  0  0  0
    4.6657   -2.6688    5.7570 H   0  0  0  0  0  0  0  0  0  0  0  0
    3.2873   -2.5281    3.7177 H   0  0  0  0  0  0  0  0  0  0  0  0
    0.8534   -0.1393   -1.5720 H   0  0  0  0  0  0  0  0  0  0  0  0
    2.4055    0.7115   -4.5746 H   0  0  0  0  0  0  0  0  0  0  0  0
    4.8385    1.0331   -4.7681 H   0  0  0  0  0  0  0  0  0  0  0  0
    7.0154    1.2957   -3.5562 H   0  0  0  0  0  0  0  0  0  0  0  0
    8.5501   -0.3783   -2.5739 H   0  0  0  0  0  0  0  0  0  0  0  0
    7.7076   -1.8498   -0.7575 H   0  0  0  0  0  0  0  0  0  0  0  0
    5.3738   -1.6510    0.0073 H   0  0  0  0  0  0  0  0  0  0  0  0
  1  2  2  0  0  0  0
  2  3  1  0  0  0  0
  2 18  1  0  0  0  0
  3  4  1  0  0  0  0
  3 29  1  0  0  0  0
  4  5  1  0  0  0  0
  4 30  1  0  0  0  0
  4 31  1  0  0  0  0
  5  6  2  0  0  0  0
  5 17  1  0  0  0  0
  6  7  1  0  0  0  0
  6 32  1  0  0  0  0
  7  8  2  0  0  0  0
  7 33  1  0  0  0  0
  8  9  1  0  0  0  0
  8 16  1  0  0  0  0
  9 10  2  0  0  0  0
  9 15  1  0  0  0  0
 10 11  1  0  0  0  0
 10 34  1  0  0  0  0
 11 12  1  0  0  0  0
 11 35  1  0  0  0  0
 12 13  2  0  0  0  0
 12 14  1  0  0  0  0
 14 15  2  0  0  0  0
 14 36  1  0  0  0  0
 15 37  1  0  0  0  0
 16 17  2  0  0  0  0
 16 38  1  0  0  0  0
 17 39  1  0  0  0  0
 18 19  2  0  0  0  0
 18 28  1  0  0  0  0
 19 20  1  0  0  0  0
 19 21  1  0  0  0  0
 20 40  1  0  0  0  0
 21 22  2  0  0  0  0
 21 41  1  0  0  0  0
 22 23  1  0  0  0  0
 22 42  1  0  0  0  0
 23 24  2  0  0  0  0
 23 28  1  0  0  0  0
 24 25  1  0  0  0  0
 24 43  1  0  0  0  0
 25 26  2  0  0  0  0
 25 44  1  0  0  0  0
 26 27  1  0  0  0  0
 26 45  1  0  0  0  0
 27 28  2  0  0  0  0
 27 46  1  0  0  0  0
M  END
$$$$
