
 OpenBabel01122422393D

 47 50  0  0  0  0  0  0  0  0999 V2000
    0.9814    0.2936    0.0315 O   0  0  0  0  0  0  0  0  0  0  0  0
    2.1853    0.0922   -0.0898 C   0  0  0  0  0  0  0  0  0  0  0  0
    2.7968   -0.8076   -0.9554 N   0  0  0  0  0  0  0  0  0  0  0  0
    2.1302   -1.5850   -1.9418 C   0  0  0  0  0  0  0  0  0  0  0  0
    0.8221   -1.2626   -2.3391 C   0  0  0  0  0  0  0  0  0  0  0  0
    0.1305   -2.0229   -3.2813 C   0  0  0  0  0  0  0  0  0  0  0  0
    0.7525   -3.1031   -3.8843 C   0  0  0  0  0  0  0  0  0  0  0  0
    2.0631   -3.4242   -3.5362 C   0  0  0  0  0  0  0  0  0  0  0  0
    2.7658   -2.6929   -2.5511 C   0  0  0  0  0  0  0  0  0  0  0  0
    4.1271   -3.2296   -2.1500 C   0  0  0  0  0  0  0  0  0  0  0  0
    5.3147   -2.8448   -2.9973 C   0  0  0  0  0  0  0  0  0  0  0  0
    6.3761   -3.7459   -3.1688 C   0  0  0  0  0  0  0  0  0  0  0  0
    7.5347   -3.3494   -3.8313 C   0  0  0  0  0  0  0  0  0  0  0  0
    7.6042   -2.0511   -4.3017 C   0  0  0  0  0  0  0  0  0  0  0  0
    6.6020   -1.1558   -4.1717 N   0  0  0  0  0  0  0  0  0  0  0  0
    5.4827   -1.5729   -3.5335 C   0  0  0  0  0  0  0  0  0  0  0  0
    3.0829    0.8565    0.8164 C   0  0  0  0  0  0  0  0  0  0  0  0
    4.3376    1.3084    0.3970 C   0  0  0  0  0  0  0  0  0  0  0  0
    5.1176    2.0791    1.2615 C   0  0  0  0  0  0  0  0  0  0  0  0
    4.6395    2.4169    2.5308 C   0  0  0  0  0  0  0  0  0  0  0  0
    3.3648    2.0049    2.9414 C   0  0  0  0  0  0  0  0  0  0  0  0
    2.7968    2.4100    4.2612 C   0  0  0  0  0  0  0  0  0  0  0  0
    2.0044    1.6018    4.8977 N   0  0  0  0  0  0  0  0  0  0  0  0
    1.5173    2.0335    6.1021 N   0  0  0  0  0  0  0  0  0  0  0  0
    1.7979    3.2348    6.7006 C   0  0  0  0  0  0  0  0  0  0  0  0
    1.3540    3.5693    7.7932 O   0  0  0  0  0  0  0  0  0  0  0  0
    2.6786    4.1374    5.9375 C   0  0  0  0  0  0  0  0  0  0  0  0
    3.1644    3.7639    4.7550 C   0  0  0  0  0  0  0  0  0  0  0  0
    2.5968    1.2067    2.0859 C   0  0  0  0  0  0  0  0  0  0  0  0
    3.7759   -0.9998   -0.7986 H   0  0  0  0  0  0  0  0  0  0  0  0
    0.2960   -0.4052   -1.9304 H   0  0  0  0  0  0  0  0  0  0  0  0
   -0.8938   -1.7607   -3.5334 H   0  0  0  0  0  0  0  0  0  0  0  0
    0.2142   -3.7000   -4.6152 H   0  0  0  0  0  0  0  0  0  0  0  0
    2.5287   -4.2832   -4.0168 H   0  0  0  0  0  0  0  0  0  0  0  0
    4.0463   -4.3269   -2.1449 H   0  0  0  0  0  0  0  0  0  0  0  0
    4.3502   -2.9729   -1.1084 H   0  0  0  0  0  0  0  0  0  0  0  0
    6.3152   -4.7588   -2.7746 H   0  0  0  0  0  0  0  0  0  0  0  0
    8.3684   -4.0315   -3.9633 H   0  0  0  0  0  0  0  0  0  0  0  0
    8.4951   -1.6842   -4.8043 H   0  0  0  0  0  0  0  0  0  0  0  0
    4.7089   -0.8141   -3.4566 H   0  0  0  0  0  0  0  0  0  0  0  0
    4.7041    1.1082   -0.6058 H   0  0  0  0  0  0  0  0  0  0  0  0
    6.0933    2.4378    0.9399 H   0  0  0  0  0  0  0  0  0  0  0  0
    5.2779    3.0036    3.1856 H   0  0  0  0  0  0  0  0  0  0  0  0
    0.9002    1.3997    6.5987 H   0  0  0  0  0  0  0  0  0  0  0  0
    2.8850    5.1058    6.3788 H   0  0  0  0  0  0  0  0  0  0  0  0
    3.7748    4.4302    4.1658 H   0  0  0  0  0  0  0  0  0  0  0  0
    1.6024    0.8798    2.3933 H   0  0  0  0  0  0  0  0  0  0  0  0
  1  2  2  0  0  0  0
  2  3  1  0  0  0  0
  2 17  1  0  0  0  0
  3  4  1  0  0  0  0
  3 30  1  0  0  0  0
  4  5  2  0  0  0  0
  4  9  1  0  0  0  0
  5  6  1  0  0  0  0
  5 31  1  0  0  0  0
  6  7  2  0  0  0  0
  6 32  1  0  0  0  0
  7  8  1  0  0  0  0
  7 33  1  0  0  0  0
  8  9  2  0  0  0  0
  8 34  1  0  0  0  0
  9 10  1  0  0  0  0
 10 11  1  0  0  0  0
 10 35  1  0  0  0  0
 10 36  1  0  0  0  0
 11 12  2  0  0  0  0
 11 16  1  0  0  0  0
 12 13  1  0  0  0  0
 12 37  1  0  0  0  0
 13 14  2  0  0  0  0
 13 38  1  0  0  0  0
 14 15  1  0  0  0  0
 14 39  1  0  0  0  0
 15 16  2  0  0  0  0
 16 40  1  0  0  0  0
 17 18  2  0  0  0  0
 17 29  1  0  0  0  0
 18 19  1  0  0  0  0
 18 41  1  0  0  0  0
 19 20  2  0  0  0  0
 19 42  1  0  0  0  0
 20 21  1  0  0  0  0
 20 43  1  0  0  0  0
 21 22  1  0  0  0  0
 21 29  2  0  0  0  0
 22 23  2  0  0  0  0
 22 28  1  0  0  0  0
 23 24  1  0  0  0  0
 24 25  1  0  0  0  0
 24 44  1  0  0  0  0
 25 26  2  0  0  0  0
 25 27  1  0  0  0  0
 27 28  2  0  0  0  0
 27 45  1  0  0  0  0
 28 46  1  0  0  0  0
 29 47  1  0  0  0  0
M  END
$$$$
