
 OpenBabel01122422393D

 44 47  0  0  0  0  0  0  0  0999 V2000
    3.1015   -0.1487    1.3377 O   0  0  0  0  0  0  0  0  0  0  0  0
    4.1482   -0.4840    0.7903 C   0  0  0  0  0  0  0  0  0  0  0  0
    4.2348   -0.7427   -0.5735 N   0  0  0  0  0  0  0  0  0  0  0  0
    3.0715   -0.8528   -1.4509 C   0  0  0  0  0  0  0  0  0  0  0  0
    3.4810   -1.1515   -2.8874 C   0  0  0  0  0  0  0  0  0  0  0  0
    3.5786   -2.4667   -3.3720 C   0  0  0  0  0  0  0  0  0  0  0  0
    3.9512   -2.7289   -4.7072 C   0  0  0  0  0  0  0  0  0  0  0  0
    4.2383   -1.6818   -5.5932 C   0  0  0  0  0  0  0  0  0  0  0  0
    4.6001   -1.9512   -7.0108 C   0  0  0  0  0  0  0  0  0  0  0  0
    3.6293   -1.9731   -7.9387 C   0  0  0  0  0  0  0  0  0  0  0  0
    3.8937   -2.2220   -9.2691 N   0  0  0  0  0  0  0  0  0  0  0  0
    5.1496   -2.4715   -9.7712 C   0  0  0  0  0  0  0  0  0  0  0  0
    5.3861   -2.6932  -10.9521 O   0  0  0  0  0  0  0  0  0  0  0  0
    6.2310   -2.4467   -8.7570 C   0  0  0  0  0  0  0  0  0  0  0  0
    5.9771   -2.2205   -7.4594 C   0  0  0  0  0  0  0  0  0  0  0  0
    4.1691   -0.3708   -5.1049 C   0  0  0  0  0  0  0  0  0  0  0  0
    3.7944   -0.1099   -3.7725 C   0  0  0  0  0  0  0  0  0  0  0  0
    5.3861   -0.7640    1.6287 C   0  0  0  0  0  0  0  0  0  0  0  0
    6.6332   -1.0589    1.0465 C   0  0  0  0  0  0  0  0  0  0  0  0
    7.7022   -0.1497    0.8798 C   0  0  0  0  0  0  0  0  0  0  0  0
    8.9591   -0.5945    0.4249 C   0  0  0  0  0  0  0  0  0  0  0  0
    9.1043   -1.9060   -0.0208 C   0  0  0  0  0  0  0  0  0  0  0  0
    8.1061   -2.8048    0.2878 C   0  0  0  0  0  0  0  0  0  0  0  0
    8.2372   -4.0984   -0.0333 F   0  0  0  0  0  0  0  0  0  0  0  0
    7.0541   -2.3761    1.0855 C   0  0  0  0  0  0  0  0  0  0  0  0
    6.6849   -3.0655    2.2302 C   0  0  0  0  0  0  0  0  0  0  0  0
    5.7940   -2.5973    3.1368 N   0  0  0  0  0  0  0  0  0  0  0  0
    5.0886   -1.5024    2.7651 C   0  0  0  0  0  0  0  0  0  0  0  0
    5.0966   -1.1108   -0.9443 H   0  0  0  0  0  0  0  0  0  0  0  0
    2.4936    0.0781   -1.3987 H   0  0  0  0  0  0  0  0  0  0  0  0
    2.4100   -1.6448   -1.0725 H   0  0  0  0  0  0  0  0  0  0  0  0
    3.3451   -3.3084   -2.7217 H   0  0  0  0  0  0  0  0  0  0  0  0
    3.9992   -3.7610   -5.0534 H   0  0  0  0  0  0  0  0  0  0  0  0
    2.5735   -1.7933   -7.6974 H   0  0  0  0  0  0  0  0  0  0  0  0
    3.1432   -2.2293   -9.9451 H   0  0  0  0  0  0  0  0  0  0  0  0
    7.2514   -2.6347   -9.1147 H   0  0  0  0  0  0  0  0  0  0  0  0
    6.7489   -2.1738   -6.7249 H   0  0  0  0  0  0  0  0  0  0  0  0
    4.4024    0.4669   -5.7596 H   0  0  0  0  0  0  0  0  0  0  0  0
    3.7393    0.9231   -3.4340 H   0  0  0  0  0  0  0  0  0  0  0  0
    7.6146    0.8695    1.2587 H   0  0  0  0  0  0  0  0  0  0  0  0
    9.8245    0.0640    0.4456 H   0  0  0  0  0  0  0  0  0  0  0  0
   10.0217   -2.2625   -0.4760 H   0  0  0  0  0  0  0  0  0  0  0  0
    7.2473   -3.9435    2.5424 H   0  0  0  0  0  0  0  0  0  0  0  0
    4.2009   -1.3107    3.3597 H   0  0  0  0  0  0  0  0  0  0  0  0
  1  2  2  0  0  0  0
  2  3  1  0  0  0  0
  2 18  1  0  0  0  0
  3  4  1  0  0  0  0
  3 29  1  0  0  0  0
  4  5  1  0  0  0  0
  4 30  1  0  0  0  0
  4 31  1  0  0  0  0
  5  6  2  0  0  0  0
  5 17  1  0  0  0  0
  6  7  1  0  0  0  0
  6 32  1  0  0  0  0
  7  8  2  0  0  0  0
  7 33  1  0  0  0  0
  8  9  1  0  0  0  0
  8 16  1  0  0  0  0
  9 10  2  0  0  0  0
  9 15  1  0  0  0  0
 10 11  1  0  0  0  0
 10 34  1  0  0  0  0
 11 12  1  0  0  0  0
 11 35  1  0  0  0  0
 12 13  2  0  0  0  0
 12 14  1  0  0  0  0
 14 15  2  0  0  0  0
 14 36  1  0  0  0  0
 15 37  1  0  0  0  0
 16 17  2  0  0  0  0
 16 38  1  0  0  0  0
 17 39  1  0  0  0  0
 18 19  2  0  0  0  0
 18 28  1  0  0  0  0
 19 20  1  0  0  0  0
 19 25  1  0  0  0  0
 20 21  2  0  0  0  0
 20 40  1  0  0  0  0
 21 22  1  0  0  0  0
 21 41  1  0  0  0  0
 22 23  2  0  0  0  0
 22 42  1  0  0  0  0
 23 24  1  0  0  0  0
 23 25  1  0  0  0  0
 25 26  2  0  0  0  0
 26 27  1  0  0  0  0
 26 43  1  0  0  0  0
 27 28  2  0  0  0  0
 28 44  1  0  0  0  0
M  END
$$$$
