
 OpenBabel01122422393D

 44 47  0  0  0  0  0  0  0  0999 V2000
    1.0009    0.0788   -0.5331 C   0  0  0  0  0  0  0  0  0  0  0  0
    2.4491    0.0425   -0.5078 N   0  0  0  0  0  0  0  0  0  0  0  0
    3.1495    1.1575   -0.9375 C   0  0  0  0  0  0  0  0  0  0  0  0
    2.6295    2.1931   -1.3487 O   0  0  0  0  0  0  0  0  0  0  0  0
    4.5122    1.0755   -0.8918 N   0  0  0  0  0  0  0  0  0  0  0  0
    5.2076   -0.0513   -0.4662 C   0  0  0  0  0  0  0  0  0  0  0  0
    6.5973   -0.0462   -0.4638 C   0  0  0  0  0  0  0  0  0  0  0  0
    7.3021   -1.1838   -0.0376 C   0  0  0  0  0  0  0  0  0  0  0  0
    8.7752   -1.0646    0.0488 C   0  0  0  0  0  0  0  0  0  0  0  0
    9.2114    0.0450    0.3361 O   0  0  0  0  0  0  0  0  0  0  0  0
    9.5207   -2.1904   -0.2663 N   0  0  0  0  0  0  0  0  0  0  0  0
   10.9361   -2.2105   -0.3069 C   0  0  0  0  0  0  0  0  0  0  0  0
   11.7165   -1.2403    0.3246 C   0  0  0  0  0  0  0  0  0  0  0  0
   13.0976   -1.1916    0.1345 C   0  0  0  0  0  0  0  0  0  0  0  0
   13.7355   -2.1295   -0.6799 C   0  0  0  0  0  0  0  0  0  0  0  0
   15.1485   -1.9912   -1.0111 C   0  0  0  0  0  0  0  0  0  0  0  0
   16.0806   -1.3722   -0.2018 C   0  0  0  0  0  0  0  0  0  0  0  0
   17.5935   -1.2899   -0.9974 S   0  0  0  0  0  0  0  0  0  0  0  0
   16.9146   -2.0906   -2.3674 C   0  0  0  0  0  0  0  0  0  0  0  0
   17.7593   -2.3347   -3.5886 C   0  0  0  0  0  0  0  0  0  0  0  0
   19.0351   -1.8724   -3.4676 F   0  0  0  0  0  0  0  0  0  0  0  0
   17.8623   -3.6597   -3.8805 F   0  0  0  0  0  0  0  0  0  0  0  0
   17.2429   -1.7311   -4.6941 F   0  0  0  0  0  0  0  0  0  0  0  0
   15.6420   -2.4318   -2.2287 N   0  0  0  0  0  0  0  0  0  0  0  0
   12.9672   -3.1589   -1.2418 C   0  0  0  0  0  0  0  0  0  0  0  0
   11.5778   -3.2099   -1.0443 C   0  0  0  0  0  0  0  0  0  0  0  0
    6.6118   -2.3259    0.3802 C   0  0  0  0  0  0  0  0  0  0  0  0
    5.2121   -2.3176    0.3846 C   0  0  0  0  0  0  0  0  0  0  0  0
    4.5157   -1.1753   -0.0360 C   0  0  0  0  0  0  0  0  0  0  0  0
    3.0410   -1.1231   -0.0227 C   0  0  0  0  0  0  0  0  0  0  0  0
    2.4124   -2.0879    0.4061 O   0  0  0  0  0  0  0  0  0  0  0  0
    0.6125    1.0048   -0.9644 H   0  0  0  0  0  0  0  0  0  0  0  0
    0.6265   -0.0251    0.4902 H   0  0  0  0  0  0  0  0  0  0  0  0
    0.6363   -0.7689   -1.1223 H   0  0  0  0  0  0  0  0  0  0  0  0
    5.0062    1.9033   -1.2033 H   0  0  0  0  0  0  0  0  0  0  0  0
    7.1464    0.8421   -0.7716 H   0  0  0  0  0  0  0  0  0  0  0  0
    9.0423   -2.9700   -0.7002 H   0  0  0  0  0  0  0  0  0  0  0  0
   11.2752   -0.4777    0.9584 H   0  0  0  0  0  0  0  0  0  0  0  0
   13.6418   -0.3702    0.5926 H   0  0  0  0  0  0  0  0  0  0  0  0
   15.9546   -0.9507    0.7854 H   0  0  0  0  0  0  0  0  0  0  0  0
   13.4432   -3.9085   -1.8719 H   0  0  0  0  0  0  0  0  0  0  0  0
   11.0131   -4.0018   -1.5289 H   0  0  0  0  0  0  0  0  0  0  0  0
    7.1406   -3.2003    0.7508 H   0  0  0  0  0  0  0  0  0  0  0  0
    4.6643   -3.1907    0.7355 H   0  0  0  0  0  0  0  0  0  0  0  0
  1  2  1  0  0  0  0
  1 32  1  0  0  0  0
  1 33  1  0  0  0  0
  1 34  1  0  0  0  0
  2  3  1  0  0  0  0
  2 30  1  0  0  0  0
  3  4  2  0  0  0  0
  3  5  1  0  0  0  0
  5  6  1  0  0  0  0
  5 35  1  0  0  0  0
  6  7  2  0  0  0  0
  6 29  1  0  0  0  0
  7  8  1  0  0  0  0
  7 36  1  0  0  0  0
  8  9  1  0  0  0  0
  8 27  2  0  0  0  0
  9 10  2  0  0  0  0
  9 11  1  0  0  0  0
 11 12  1  0  0  0  0
 11 37  1  0  0  0  0
 12 13  2  0  0  0  0
 12 26  1  0  0  0  0
 13 14  1  0  0  0  0
 13 38  1  0  0  0  0
 14 15  2  0  0  0  0
 14 39  1  0  0  0  0
 15 16  1  0  0  0  0
 15 25  1  0  0  0  0
 16 17  2  0  0  0  0
 16 24  1  0  0  0  0
 17 18  1  0  0  0  0
 17 40  1  0  0  0  0
 18 19  1  0  0  0  0
 19 20  1  0  0  0  0
 19 24  2  0  0  0  0
 20 21  1  0  0  0  0
 20 22  1  0  0  0  0
 20 23  1  0  0  0  0
 25 26  2  0  0  0  0
 25 41  1  0  0  0  0
 26 42  1  0  0  0  0
 27 28  1  0  0  0  0
 27 43  1  0  0  0  0
 28 29  2  0  0  0  0
 28 44  1  0  0  0  0
 29 30  1  0  0  0  0
 30 31  2  0  0  0  0
M  END
$$$$
