
 OpenBabel01122422353D

 44 47  0  0  0  0  0  0  0  0999 V2000
   14.6496   -0.6958    1.0319 C   0  0  0  0  0  0  0  0  0  0  0  0
   13.2538   -0.3978    0.9571 O   0  0  0  0  0  0  0  0  0  0  0  0
   12.4646   -1.4207    1.3788 C   0  0  0  0  0  0  0  0  0  0  0  0
   12.8618   -2.5063    1.7629 O   0  0  0  0  0  0  0  0  0  0  0  0
   11.0243   -1.0480    1.3242 C   0  0  0  0  0  0  0  0  0  0  0  0
   10.5873    0.1875    0.8396 C   0  0  0  0  0  0  0  0  0  0  0  0
    9.2255    0.4988    0.7883 C   0  0  0  0  0  0  0  0  0  0  0  0
    8.3183   -0.4661    1.2395 C   0  0  0  0  0  0  0  0  0  0  0  0
    6.9473   -0.4191    1.2844 N   0  0  0  0  0  0  0  0  0  0  0  0
    6.4506   -1.5820    1.8069 C   0  0  0  0  0  0  0  0  0  0  0  0
    7.5105   -2.4193    2.1119 C   0  0  0  0  0  0  0  0  0  0  0  0
    7.3852   -3.7629    2.6928 C   0  0  0  0  0  0  0  0  0  0  0  0
    8.3808   -4.4254    2.9829 O   0  0  0  0  0  0  0  0  0  0  0  0
    6.0019   -4.3160    2.9540 C   0  0  0  0  0  0  0  0  0  0  0  0
    5.4699   -3.9320    4.2488 N   0  0  0  0  0  0  0  0  0  0  0  0
    6.1526   -3.7157    5.4124 C   0  0  0  0  0  0  0  0  0  0  0  0
    5.2116   -3.3971    6.3698 C   0  0  0  0  0  0  0  0  0  0  0  0
    5.5032   -3.0614    7.7505 C   0  0  0  0  0  0  0  0  0  0  0  0
    6.7146   -2.4406    8.1029 C   0  0  0  0  0  0  0  0  0  0  0  0
    6.9685   -2.0743    9.4278 C   0  0  0  0  0  0  0  0  0  0  0  0
    6.0137   -2.3323   10.4031 C   0  0  0  0  0  0  0  0  0  0  0  0
    6.2530   -1.9680   11.6700 F   0  0  0  0  0  0  0  0  0  0  0  0
    4.8195   -2.9565   10.0679 C   0  0  0  0  0  0  0  0  0  0  0  0
    3.9009   -3.2064   11.0111 F   0  0  0  0  0  0  0  0  0  0  0  0
    4.5570   -3.3230    8.7506 C   0  0  0  0  0  0  0  0  0  0  0  0
    3.9808   -3.4892    5.6808 C   0  0  0  0  0  0  0  0  0  0  0  0
    4.1330   -3.8072    4.3926 N   0  0  0  0  0  0  0  0  0  0  0  0
    8.7059   -1.7096    1.7428 C   0  0  0  0  0  0  0  0  0  0  0  0
   10.0891   -1.9999    1.7823 C   0  0  0  0  0  0  0  0  0  0  0  0
   15.2079    0.2152    0.7990 H   0  0  0  0  0  0  0  0  0  0  0  0
   14.9127   -1.4643    0.2982 H   0  0  0  0  0  0  0  0  0  0  0  0
   14.9237   -1.0164    2.0424 H   0  0  0  0  0  0  0  0  0  0  0  0
   11.3003    0.9314    0.4886 H   0  0  0  0  0  0  0  0  0  0  0  0
    8.8891    1.4586    0.4078 H   0  0  0  0  0  0  0  0  0  0  0  0
    6.3875    0.3640    0.9721 H   0  0  0  0  0  0  0  0  0  0  0  0
    5.3812   -1.7040    1.9141 H   0  0  0  0  0  0  0  0  0  0  0  0
    6.0208   -5.4096    2.9203 H   0  0  0  0  0  0  0  0  0  0  0  0
    5.3010   -3.9797    2.1821 H   0  0  0  0  0  0  0  0  0  0  0  0
    7.2294   -3.8091    5.4647 H   0  0  0  0  0  0  0  0  0  0  0  0
    7.4662   -2.2172    7.3481 H   0  0  0  0  0  0  0  0  0  0  0  0
    7.8984   -1.5840    9.6983 H   0  0  0  0  0  0  0  0  0  0  0  0
    3.6144   -3.8142    8.5287 H   0  0  0  0  0  0  0  0  0  0  0  0
    2.9812   -3.3261    6.0647 H   0  0  0  0  0  0  0  0  0  0  0  0
   10.4328   -2.9612    2.1612 H   0  0  0  0  0  0  0  0  0  0  0  0
  1  2  1  0  0  0  0
  1 30  1  0  0  0  0
  1 31  1  0  0  0  0
  1 32  1  0  0  0  0
  2  3  1  0  0  0  0
  3  4  2  0  0  0  0
  3  5  1  0  0  0  0
  5  6  2  0  0  0  0
  5 29  1  0  0  0  0
  6  7  1  0  0  0  0
  6 33  1  0  0  0  0
  7  8  2  0  0  0  0
  7 34  1  0  0  0  0
  8  9  1  0  0  0  0
  8 28  1  0  0  0  0
  9 10  1  0  0  0  0
  9 35  1  0  0  0  0
 10 11  2  0  0  0  0
 10 36  1  0  0  0  0
 11 12  1  0  0  0  0
 11 28  1  0  0  0  0
 12 13  2  0  0  0  0
 12 14  1  0  0  0  0
 14 15  1  0  0  0  0
 14 37  1  0  0  0  0
 14 38  1  0  0  0  0
 15 16  1  0  0  0  0
 15 27  1  0  0  0  0
 16 17  2  0  0  0  0
 16 39  1  0  0  0  0
 17 18  1  0  0  0  0
 17 26  1  0  0  0  0
 18 19  2  0  0  0  0
 18 25  1  0  0  0  0
 19 20  1  0  0  0  0
 19 40  1  0  0  0  0
 20 21  2  0  0  0  0
 20 41  1  0  0  0  0
 21 22  1  0  0  0  0
 21 23  1  0  0  0  0
 23 24  1  0  0  0  0
 23 25  2  0  0  0  0
 25 42  1  0  0  0  0
 26 27  2  0  0  0  0
 26 43  1  0  0  0  0
 28 29  2  0  0  0  0
 29 44  1  0  0  0  0
M  END
$$$$
