
 OpenBabel01122422393D

 48 51  0  0  0  0  0  0  0  0999 V2000
    0.9915    0.3423    0.1598 O   0  0  0  0  0  0  0  0  0  0  0  0
    2.2017    0.1738    0.0246 C   0  0  0  0  0  0  0  0  0  0  0  0
    2.8212   -0.6212   -0.9254 N   0  0  0  0  0  0  0  0  0  0  0  0
    2.1339   -1.4343   -1.8635 C   0  0  0  0  0  0  0  0  0  0  0  0
    0.7734   -1.3094   -2.1457 C   0  0  0  0  0  0  0  0  0  0  0  0
    0.1463   -2.2097   -3.0044 C   0  0  0  0  0  0  0  0  0  0  0  0
    0.9097   -3.2069   -3.5820 C   0  0  0  0  0  0  0  0  0  0  0  0
    2.2378   -3.3398   -3.3802 N   0  0  0  0  0  0  0  0  0  0  0  0
    2.8153   -2.4497   -2.5321 C   0  0  0  0  0  0  0  0  0  0  0  0
    3.0798    0.8236    1.0284 C   0  0  0  0  0  0  0  0  0  0  0  0
    2.6067    0.8760    2.3468 C   0  0  0  0  0  0  0  0  0  0  0  0
    3.3332    1.5395    3.3336 C   0  0  0  0  0  0  0  0  0  0  0  0
    4.5348    2.1821    3.0145 C   0  0  0  0  0  0  0  0  0  0  0  0
    5.2745    2.9640    4.0726 C   0  0  0  0  0  0  0  0  0  0  0  0
    6.1874    2.1431    4.8222 N   0  0  0  0  0  0  0  0  0  0  0  0
    7.5054    1.9952    4.4498 C   0  0  0  0  0  0  0  0  0  0  0  0
    7.9759    2.5601    3.4668 O   0  0  0  0  0  0  0  0  0  0  0  0
    8.2760    1.0861    5.3050 C   0  0  0  0  0  0  0  0  0  0  0  0
    7.9380    0.9052    6.5957 N   0  0  0  0  0  0  0  0  0  0  0  0
    8.8923    0.0559    7.1225 O   0  0  0  0  0  0  0  0  0  0  0  0
    9.7643   -0.3049    6.1517 C   0  0  0  0  0  0  0  0  0  0  0  0
    9.4210    0.3007    4.9654 C   0  0  0  0  0  0  0  0  0  0  0  0
   10.1160    0.1034    3.7034 C   0  0  0  0  0  0  0  0  0  0  0  0
    9.3994    0.1039    2.4975 C   0  0  0  0  0  0  0  0  0  0  0  0
   10.0605    0.0351    1.2701 C   0  0  0  0  0  0  0  0  0  0  0  0
   11.4461   -0.0753    1.2343 C   0  0  0  0  0  0  0  0  0  0  0  0
   12.1677   -0.1371    2.4252 C   0  0  0  0  0  0  0  0  0  0  0  0
   11.5076   -0.0497    3.6548 C   0  0  0  0  0  0  0  0  0  0  0  0
    5.0161    2.1073    1.6933 C   0  0  0  0  0  0  0  0  0  0  0  0
    4.2913    1.4358    0.6989 C   0  0  0  0  0  0  0  0  0  0  0  0
    3.8160   -0.7801   -0.8278 H   0  0  0  0  0  0  0  0  0  0  0  0
    0.1678   -0.5210   -1.7122 H   0  0  0  0  0  0  0  0  0  0  0  0
   -0.9170   -2.1314   -3.2023 H   0  0  0  0  0  0  0  0  0  0  0  0
    0.4570   -3.9442   -4.2390 H   0  0  0  0  0  0  0  0  0  0  0  0
    3.8790   -2.6130   -2.3862 H   0  0  0  0  0  0  0  0  0  0  0  0
    1.6535    0.4151    2.6000 H   0  0  0  0  0  0  0  0  0  0  0  0
    2.9345    1.5796    4.3453 H   0  0  0  0  0  0  0  0  0  0  0  0
    4.5625    3.3930    4.7859 H   0  0  0  0  0  0  0  0  0  0  0  0
    5.8105    3.8033    3.6146 H   0  0  0  0  0  0  0  0  0  0  0  0
    5.8702    1.6368    5.6400 H   0  0  0  0  0  0  0  0  0  0  0  0
   10.5403   -0.9907    6.4606 H   0  0  0  0  0  0  0  0  0  0  0  0
    8.3156    0.1884    2.4883 H   0  0  0  0  0  0  0  0  0  0  0  0
    9.4903    0.0891    0.3467 H   0  0  0  0  0  0  0  0  0  0  0  0
   11.9633   -0.1054    0.2790 H   0  0  0  0  0  0  0  0  0  0  0  0
   13.2500   -0.2303    2.3966 H   0  0  0  0  0  0  0  0  0  0  0  0
   12.1025   -0.0706    4.5642 H   0  0  0  0  0  0  0  0  0  0  0  0
    5.9489    2.6065    1.4295 H   0  0  0  0  0  0  0  0  0  0  0  0
    4.6536    1.4494   -0.3254 H   0  0  0  0  0  0  0  0  0  0  0  0
  1  2  2  0  0  0  0
  2  3  1  0  0  0  0
  2 10  1  0  0  0  0
  3  4  1  0  0  0  0
  3 31  1  0  0  0  0
  4  5  2  0  0  0  0
  4  9  1  0  0  0  0
  5  6  1  0  0  0  0
  5 32  1  0  0  0  0
  6  7  2  0  0  0  0
  6 33  1  0  0  0  0
  7  8  1  0  0  0  0
  7 34  1  0  0  0  0
  8  9  2  0  0  0  0
  9 35  1  0  0  0  0
 10 11  2  0  0  0  0
 10 30  1  0  0  0  0
 11 12  1  0  0  0  0
 11 36  1  0  0  0  0
 12 13  2  0  0  0  0
 12 37  1  0  0  0  0
 13 14  1  0  0  0  0
 13 29  1  0  0  0  0
 14 15  1  0  0  0  0
 14 38  1  0  0  0  0
 14 39  1  0  0  0  0
 15 16  1  0  0  0  0
 15 40  1  0  0  0  0
 16 17  2  0  0  0  0
 16 18  1  0  0  0  0
 18 19  2  0  0  0  0
 18 22  1  0  0  0  0
 19 20  1  0  0  0  0
 20 21  1  0  0  0  0
 21 22  2  0  0  0  0
 21 41  1  0  0  0  0
 22 23  1  0  0  0  0
 23 24  2  0  0  0  0
 23 28  1  0  0  0  0
 24 25  1  0  0  0  0
 24 42  1  0  0  0  0
 25 26  2  0  0  0  0
 25 43  1  0  0  0  0
 26 27  1  0  0  0  0
 26 44  1  0  0  0  0
 27 28  2  0  0  0  0
 27 45  1  0  0  0  0
 28 46  1  0  0  0  0
 29 30  2  0  0  0  0
 29 47  1  0  0  0  0
 30 48  1  0  0  0  0
M  END
$$$$
