
 OpenBabel01122422353D

 43 46  0  0  0  0  0  0  0  0999 V2000
    1.0265    0.1223    0.0424 O   0  0  0  0  0  0  0  0  0  0  0  0
    2.2497    0.0355   -0.0580 C   0  0  0  0  0  0  0  0  0  0  0  0
    3.0071   -0.7703    0.7622 N   0  0  0  0  0  0  0  0  0  0  0  0
    2.3860   -1.5700    1.7771 C   0  0  0  0  0  0  0  0  0  0  0  0
    1.8951   -2.8746    1.2465 C   0  0  0  0  0  0  0  0  0  0  0  0
    1.1167   -3.8251    1.8902 C   0  0  0  0  0  0  0  0  0  0  0  0
    0.4720   -3.9639    3.1884 C   0  0  0  0  0  0  0  0  0  0  0  0
    0.3939   -5.2205    3.8121 C   0  0  0  0  0  0  0  0  0  0  0  0
   -0.2248   -5.3601    5.0591 C   0  0  0  0  0  0  0  0  0  0  0  0
   -0.7636   -4.2458    5.6909 C   0  0  0  0  0  0  0  0  0  0  0  0
   -1.3622   -4.3821    6.8798 F   0  0  0  0  0  0  0  0  0  0  0  0
   -0.6981   -2.9950    5.1013 C   0  0  0  0  0  0  0  0  0  0  0  0
   -0.0924   -2.8677    3.8565 C   0  0  0  0  0  0  0  0  0  0  0  0
   -0.0972   -1.6502    3.3018 F   0  0  0  0  0  0  0  0  0  0  0  0
    0.9653   -4.8829    1.0276 O   0  0  0  0  0  0  0  0  0  0  0  0
    1.6395   -4.5050   -0.0902 C   0  0  0  0  0  0  0  0  0  0  0  0
    2.2355   -3.3399   -0.0147 N   0  0  0  0  0  0  0  0  0  0  0  0
    3.0410    0.8241   -1.0065 C   0  0  0  0  0  0  0  0  0  0  0  0
    4.3866    0.7149   -1.0814 N   0  0  0  0  0  0  0  0  0  0  0  0
    4.7630    1.6562   -1.9902 N   0  0  0  0  0  0  0  0  0  0  0  0
    6.1361    1.8689   -2.2929 C   0  0  0  0  0  0  0  0  0  0  0  0
    7.1118    1.0335   -1.7285 C   0  0  0  0  0  0  0  0  0  0  0  0
    8.4619    1.2343   -2.0230 C   0  0  0  0  0  0  0  0  0  0  0  0
    8.8451    2.2712   -2.8716 C   0  0  0  0  0  0  0  0  0  0  0  0
    7.8823    3.1095   -3.4290 C   0  0  0  0  0  0  0  0  0  0  0  0
    6.5303    2.9101   -3.1459 C   0  0  0  0  0  0  0  0  0  0  0  0
    3.6791    2.3302   -2.5101 C   0  0  0  0  0  0  0  0  0  0  0  0
    2.5742    1.8013   -1.9046 C   0  0  0  0  0  0  0  0  0  0  0  0
    1.3174    2.2076   -2.1354 O   0  0  0  0  0  0  0  0  0  0  0  0
    3.9971   -0.8391    0.5573 H   0  0  0  0  0  0  0  0  0  0  0  0
    1.5672   -0.9832    2.1926 H   0  0  0  0  0  0  0  0  0  0  0  0
    3.1208   -1.7419    2.5694 H   0  0  0  0  0  0  0  0  0  0  0  0
    0.8156   -6.1011    3.3303 H   0  0  0  0  0  0  0  0  0  0  0  0
   -0.2924   -6.3320    5.5386 H   0  0  0  0  0  0  0  0  0  0  0  0
   -1.1237   -2.1264    5.5908 H   0  0  0  0  0  0  0  0  0  0  0  0
    1.6265   -5.1973   -0.9208 H   0  0  0  0  0  0  0  0  0  0  0  0
    6.8366    0.2165   -1.0634 H   0  0  0  0  0  0  0  0  0  0  0  0
    9.2144    0.5804   -1.5896 H   0  0  0  0  0  0  0  0  0  0  0  0
    9.8967    2.4277   -3.0982 H   0  0  0  0  0  0  0  0  0  0  0  0
    8.1832    3.9223   -4.0846 H   0  0  0  0  0  0  0  0  0  0  0  0
    5.8169    3.5925   -3.5971 H   0  0  0  0  0  0  0  0  0  0  0  0
    3.7799    3.1122   -3.2422 H   0  0  0  0  0  0  0  0  0  0  0  0
    1.2902    2.8939   -2.8206 H   0  0  0  0  0  0  0  0  0  0  0  0
  1  2  2  0  0  0  0
  2  3  1  0  0  0  0
  2 18  1  0  0  0  0
  3  4  1  0  0  0  0
  3 30  1  0  0  0  0
  4  5  1  0  0  0  0
  4 31  1  0  0  0  0
  4 32  1  0  0  0  0
  5  6  2  0  0  0  0
  5 17  1  0  0  0  0
  6  7  1  0  0  0  0
  6 15  1  0  0  0  0
  7  8  2  0  0  0  0
  7 13  1  0  0  0  0
  8  9  1  0  0  0  0
  8 33  1  0  0  0  0
  9 10  2  0  0  0  0
  9 34  1  0  0  0  0
 10 11  1  0  0  0  0
 10 12  1  0  0  0  0
 12 13  2  0  0  0  0
 12 35  1  0  0  0  0
 13 14  1  0  0  0  0
 15 16  1  0  0  0  0
 16 17  2  0  0  0  0
 16 36  1  0  0  0  0
 18 19  2  0  0  0  0
 18 28  1  0  0  0  0
 19 20  1  0  0  0  0
 20 21  1  0  0  0  0
 20 27  1  0  0  0  0
 21 22  2  0  0  0  0
 21 26  1  0  0  0  0
 22 23  1  0  0  0  0
 22 37  1  0  0  0  0
 23 24  2  0  0  0  0
 23 38  1  0  0  0  0
 24 25  1  0  0  0  0
 24 39  1  0  0  0  0
 25 26  2  0  0  0  0
 25 40  1  0  0  0  0
 26 41  1  0  0  0  0
 27 28  2  0  0  0  0
 27 42  1  0  0  0  0
 28 29  1  0  0  0  0
 29 43  1  0  0  0  0
M  END
$$$$
