
 OpenBabel01122422403D

 44 47  0  0  1  0  0  0  0  0999 V2000
    1.0511   -1.1853   -0.4046 O   0  0  0  0  0  0  0  0  0  0  0  0
    2.1664   -0.7140   -0.2025 C   0  0  0  0  0  0  0  0  0  0  0  0
    2.7828   -0.6461    1.0412 N   0  0  0  0  0  0  0  0  0  0  0  0
    2.2527   -1.1636    2.2571 C   0  0  0  0  0  0  0  0  0  0  0  0
    1.2046   -2.1010    2.2381 C   0  0  0  0  0  0  0  0  0  0  0  0
    0.6449   -2.6153    3.4075 C   0  0  0  0  0  0  0  0  0  0  0  0
    1.1516   -2.2361    4.6362 C   0  0  0  0  0  0  0  0  0  0  0  0
    2.2114   -1.3336    4.6869 C   0  0  0  0  0  0  0  0  0  0  0  0
    2.7704   -0.7663    3.5117 C   0  0  0  0  0  0  0  0  0  0  0  0
    3.7919    0.3458    3.7226 C   0  0  3  0  0  0  0  0  0  0  0  0
    4.6830    0.4616    2.6029 O   0  0  0  0  0  0  0  0  0  0  0  0
    3.1186    1.6923    3.9883 C   0  0  0  0  0  0  0  0  0  0  0  0
    2.7262    2.0651    5.2759 C   0  0  0  0  0  0  0  0  0  0  0  0
    2.0233    3.2545    5.4454 C   0  0  0  0  0  0  0  0  0  0  0  0
    1.7294    4.0365    4.3363 C   0  0  0  0  0  0  0  0  0  0  0  0
    2.1847    3.6145    3.0983 C   0  0  0  0  0  0  0  0  0  0  0  0
    2.8885    2.4783    2.9010 N   0  0  0  0  0  0  0  0  0  0  0  0
    2.8851   -0.1414   -1.3466 C   0  0  0  0  0  0  0  0  0  0  0  0
    4.1431    0.3290   -1.3260 N   0  0  0  0  0  0  0  0  0  0  0  0
    4.3782    0.8202   -2.6133 O   0  0  0  0  0  0  0  0  0  0  0  0
    3.2641    0.6524   -3.3851 C   0  0  0  0  0  0  0  0  0  0  0  0
    3.2548    1.2074   -4.7296 C   0  0  0  0  0  0  0  0  0  0  0  0
    4.3488    1.8467   -5.3060 C   0  0  0  0  0  0  0  0  0  0  0  0
    4.1994    2.4294   -6.5668 C   0  0  0  0  0  0  0  0  0  0  0  0
    2.9722    2.3511   -7.2070 C   0  0  0  0  0  0  0  0  0  0  0  0
    2.7943    2.9235   -8.4037 F   0  0  0  0  0  0  0  0  0  0  0  0
    1.9371    1.6826   -6.5824 C   0  0  0  0  0  0  0  0  0  0  0  0
    2.0519    1.1087   -5.3598 N   0  0  0  0  0  0  0  0  0  0  0  0
    2.3165    0.0030   -2.6396 C   0  0  0  0  0  0  0  0  0  0  0  0
    3.6526   -0.1193    1.1097 H   0  0  0  0  0  0  0  0  0  0  0  0
    0.7886   -2.4746    1.3087 H   0  0  0  0  0  0  0  0  0  0  0  0
   -0.1857   -3.3126    3.3405 H   0  0  0  0  0  0  0  0  0  0  0  0
    0.7171   -2.6324    5.5494 H   0  0  0  0  0  0  0  0  0  0  0  0
    2.5823   -1.0429    5.6681 H   0  0  0  0  0  0  0  0  0  0  0  0
    4.4304    0.0923    4.5792 H   0  0  0  0  0  0  0  0  0  0  0  0
    4.6271    1.4050    2.3459 H   0  0  0  0  0  0  0  0  0  0  0  0
    2.9441    1.4399    6.1355 H   0  0  0  0  0  0  0  0  0  0  0  0
    1.6855    3.5588    6.4334 H   0  0  0  0  0  0  0  0  0  0  0  0
    1.1567    4.9527    4.4310 H   0  0  0  0  0  0  0  0  0  0  0  0
    1.9798    4.1912    2.2011 H   0  0  0  0  0  0  0  0  0  0  0  0
    5.2977    1.9140   -4.7844 H   0  0  0  0  0  0  0  0  0  0  0  0
    5.0241    2.9517   -7.0405 H   0  0  0  0  0  0  0  0  0  0  0  0
    0.9647    1.6011   -7.0558 H   0  0  0  0  0  0  0  0  0  0  0  0
    1.3201   -0.2734   -2.9535 H   0  0  0  0  0  0  0  0  0  0  0  0
  1  2  2  0  0  0  0
  2  3  1  0  0  0  0
  2 18  1  0  0  0  0
  3  4  1  0  0  0  0
  3 30  1  0  0  0  0
  4  5  2  0  0  0  0
  4  9  1  0  0  0  0
  5  6  1  0  0  0  0
  5 31  1  0  0  0  0
  6  7  2  0  0  0  0
  6 32  1  0  0  0  0
  7  8  1  0  0  0  0
  7 33  1  0  0  0  0
  8  9  2  0  0  0  0
  8 34  1  0  0  0  0
  9 10  1  0  0  0  0
 10 11  1  0  0  0  0
 10 12  1  0  0  0  0
 10 35  1  0  0  0  0
 11 36  1  0  0  0  0
 12 13  2  0  0  0  0
 12 17  1  0  0  0  0
 13 14  1  0  0  0  0
 13 37  1  0  0  0  0
 14 15  2  0  0  0  0
 14 38  1  0  0  0  0
 15 16  1  0  0  0  0
 15 39  1  0  0  0  0
 16 17  2  0  0  0  0
 16 40  1  0  0  0  0
 18 19  2  0  0  0  0
 18 29  1  0  0  0  0
 19 20  1  0  0  0  0
 20 21  1  0  0  0  0
 21 22  1  0  0  0  0
 21 29  2  0  0  0  0
 22 23  2  0  0  0  0
 22 28  1  0  0  0  0
 23 24  1  0  0  0  0
 23 41  1  0  0  0  0
 24 25  2  0  0  0  0
 24 42  1  0  0  0  0
 25 26  1  0  0  0  0
 25 27  1  0  0  0  0
 27 28  2  0  0  0  0
 27 43  1  0  0  0  0
 29 44  1  0  0  0  0
M  END
$$$$
