
 OpenBabel01122422403D

 53 56  0  0  0  0  0  0  0  0999 V2000
    5.1476    2.5984   -0.7437 C   0  0  0  0  0  0  0  0  0  0  0  0
    4.4923    1.3710   -0.1551 C   0  0  0  0  0  0  0  0  0  0  0  0
    5.2076    0.1614   -0.0995 C   0  0  0  0  0  0  0  0  0  0  0  0
    4.5634   -0.9883    0.3481 C   0  0  0  0  0  0  0  0  0  0  0  0
    5.2626   -2.3105    0.2756 C   0  0  0  0  0  0  0  0  0  0  0  0
    6.4932   -2.3190    0.2315 O   0  0  0  0  0  0  0  0  0  0  0  0
    4.5962   -3.5111    0.1884 N   0  0  0  0  0  0  0  0  0  0  0  0
    3.1698   -3.7855    0.0470 C   0  0  0  0  0  0  0  0  0  0  0  0
    2.6113   -3.6960   -1.3604 C   0  0  0  0  0  0  0  0  0  0  0  0
    3.3401   -3.1854   -2.4310 C   0  0  0  0  0  0  0  0  0  0  0  0
    2.7076   -3.0098   -3.6656 C   0  0  0  0  0  0  0  0  0  0  0  0
    3.3220   -2.4673   -4.7787 O   0  0  0  0  0  0  0  0  0  0  0  0
    4.2445   -1.4631   -4.5902 C   0  0  0  0  0  0  0  0  0  0  0  0
    4.0822   -0.4678   -3.6322 C   0  0  0  0  0  0  0  0  0  0  0  0
    5.1048    0.4523   -3.4379 C   0  0  0  0  0  0  0  0  0  0  0  0
    6.2754    0.4178   -4.1802 C   0  0  0  0  0  0  0  0  0  0  0  0
    6.3728   -0.5014   -5.2072 C   0  0  0  0  0  0  0  0  0  0  0  0
    7.4591   -0.4902   -5.9893 F   0  0  0  0  0  0  0  0  0  0  0  0
    5.3621   -1.4358   -5.4286 C   0  0  0  0  0  0  0  0  0  0  0  0
    1.3957   -3.4282   -3.8287 C   0  0  0  0  0  0  0  0  0  0  0  0
    0.7580   -3.9822   -2.7362 C   0  0  0  0  0  0  0  0  0  0  0  0
    1.3253   -4.1067   -1.5142 N   0  0  0  0  0  0  0  0  0  0  0  0
    3.3019   -0.9727    0.8190 N   0  0  0  0  0  0  0  0  0  0  0  0
    2.6169    0.1956    0.7971 C   0  0  0  0  0  0  0  0  0  0  0  0
    3.1539    1.3682    0.2822 C   0  0  0  0  0  0  0  0  0  0  0  0
    2.2702    2.5453    0.1785 C   0  0  0  0  0  0  0  0  0  0  0  0
    2.6448    3.5473   -0.4237 O   0  0  0  0  0  0  0  0  0  0  0  0
    1.0158    2.4431    0.7531 N   0  0  0  0  0  0  0  0  0  0  0  0
    0.1474    3.6067    0.7189 C   0  0  0  0  0  0  0  0  0  0  0  0
    0.4980    1.2916    1.3234 C   0  0  0  0  0  0  0  0  0  0  0  0
   -0.6353    1.2690    1.8011 O   0  0  0  0  0  0  0  0  0  0  0  0
    1.3112    0.1803    1.3181 N   0  0  0  0  0  0  0  0  0  0  0  0
    0.8261   -1.0651    1.8955 C   0  0  0  0  0  0  0  0  0  0  0  0
    6.1687    2.3884   -1.0815 H   0  0  0  0  0  0  0  0  0  0  0  0
    5.1917    3.4149   -0.0206 H   0  0  0  0  0  0  0  0  0  0  0  0
    4.5953    2.9379   -1.6297 H   0  0  0  0  0  0  0  0  0  0  0  0
    6.2297    0.0964   -0.4691 H   0  0  0  0  0  0  0  0  0  0  0  0
    5.2132   -4.3007    0.1038 H   0  0  0  0  0  0  0  0  0  0  0  0
    2.5917   -3.1416    0.7075 H   0  0  0  0  0  0  0  0  0  0  0  0
    3.0209   -4.8093    0.4093 H   0  0  0  0  0  0  0  0  0  0  0  0
    4.3779   -2.9016   -2.3045 H   0  0  0  0  0  0  0  0  0  0  0  0
    3.1890   -0.4108   -3.0137 H   0  0  0  0  0  0  0  0  0  0  0  0
    4.9871    1.2102   -2.6925 H   0  0  0  0  0  0  0  0  0  0  0  0
    7.0843    1.1117   -3.9735 H   0  0  0  0  0  0  0  0  0  0  0  0
    5.4646   -2.1406   -6.2443 H   0  0  0  0  0  0  0  0  0  0  0  0
    0.8847   -3.3205   -4.7780 H   0  0  0  0  0  0  0  0  0  0  0  0
   -0.2629   -4.3462   -2.8121 H   0  0  0  0  0  0  0  0  0  0  0  0
    0.6067    4.4601    0.2137 H   0  0  0  0  0  0  0  0  0  0  0  0
   -0.0908    3.8920    1.7477 H   0  0  0  0  0  0  0  0  0  0  0  0
   -0.7812    3.3451    0.2025 H   0  0  0  0  0  0  0  0  0  0  0  0
   -0.1586   -0.9487    2.3563 H   0  0  0  0  0  0  0  0  0  0  0  0
    1.5186   -1.4096    2.6718 H   0  0  0  0  0  0  0  0  0  0  0  0
    0.7395   -1.8155    1.1045 H   0  0  0  0  0  0  0  0  0  0  0  0
  1  2  1  0  0  0  0
  1 34  1  0  0  0  0
  1 35  1  0  0  0  0
  1 36  1  0  0  0  0
  2  3  2  0  0  0  0
  2 25  1  0  0  0  0
  3  4  1  0  0  0  0
  3 37  1  0  0  0  0
  4  5  1  0  0  0  0
  4 23  2  0  0  0  0
  5  6  2  0  0  0  0
  5  7  1  0  0  0  0
  7  8  1  0  0  0  0
  7 38  1  0  0  0  0
  8  9  1  0  0  0  0
  8 39  1  0  0  0  0
  8 40  1  0  0  0  0
  9 10  2  0  0  0  0
  9 22  1  0  0  0  0
 10 11  1  0  0  0  0
 10 41  1  0  0  0  0
 11 12  1  0  0  0  0
 11 20  2  0  0  0  0
 12 13  1  0  0  0  0
 13 14  2  0  0  0  0
 13 19  1  0  0  0  0
 14 15  1  0  0  0  0
 14 42  1  0  0  0  0
 15 16  2  0  0  0  0
 15 43  1  0  0  0  0
 16 17  1  0  0  0  0
 16 44  1  0  0  0  0
 17 18  1  0  0  0  0
 17 19  2  0  0  0  0
 19 45  1  0  0  0  0
 20 21  1  0  0  0  0
 20 46  1  0  0  0  0
 21 22  2  0  0  0  0
 21 47  1  0  0  0  0
 23 24  1  0  0  0  0
 24 25  2  0  0  0  0
 24 32  1  0  0  0  0
 25 26  1  0  0  0  0
 26 27  2  0  0  0  0
 26 28  1  0  0  0  0
 28 29  1  0  0  0  0
 28 30  1  0  0  0  0
 29 48  1  0  0  0  0
 29 49  1  0  0  0  0
 29 50  1  0  0  0  0
 30 31  2  0  0  0  0
 30 32  1  0  0  0  0
 32 33  1  0  0  0  0
 33 51  1  0  0  0  0
 33 52  1  0  0  0  0
 33 53  1  0  0  0  0
M  END
$$$$
