
 OpenBabel01122422403D

 47 50  0  0  0  0  0  0  0  0999 V2000
    1.0685    0.2987   -0.8699 C   0  0  0  0  0  0  0  0  0  0  0  0
    2.2128   -0.1061   -0.1144 O   0  0  0  0  0  0  0  0  0  0  0  0
    2.9930   -1.0834   -0.6959 C   0  0  0  0  0  0  0  0  0  0  0  0
    2.8306   -1.4958   -2.0313 C   0  0  0  0  0  0  0  0  0  0  0  0
    3.6222   -2.5045   -2.6113 C   0  0  0  0  0  0  0  0  0  0  0  0
    3.4436   -2.8977   -4.0163 C   0  0  0  0  0  0  0  0  0  0  0  0
    3.6311   -4.2066   -4.4616 C   0  0  0  0  0  0  0  0  0  0  0  0
    3.4869   -4.4910   -5.8156 C   0  0  0  0  0  0  0  0  0  0  0  0
    3.1575   -3.4669   -6.6928 C   0  0  0  0  0  0  0  0  0  0  0  0
    2.9690   -2.2007   -6.1754 C   0  0  0  0  0  0  0  0  0  0  0  0
    3.0963   -1.8954   -4.8661 N   0  0  0  0  0  0  0  0  0  0  0  0
    4.5971   -3.0929   -1.8042 C   0  0  0  0  0  0  0  0  0  0  0  0
    4.7777   -2.6893   -0.4839 C   0  0  0  0  0  0  0  0  0  0  0  0
    4.0022   -1.6734    0.0904 C   0  0  0  0  0  0  0  0  0  0  0  0
    4.2170   -1.2518    1.4336 N   0  0  0  0  0  0  0  0  0  0  0  0
    5.2767   -1.6398    2.2375 C   0  0  0  0  0  0  0  0  0  0  0  0
    6.2266   -2.3438    1.8872 O   0  0  0  0  0  0  0  0  0  0  0  0
    5.3203   -1.1825    3.6509 C   0  0  0  0  0  0  0  0  0  0  0  0
    6.0677   -1.9887    4.5417 C   0  0  0  0  0  0  0  0  0  0  0  0
    6.3233   -1.5848    5.8574 C   0  0  0  0  0  0  0  0  0  0  0  0
    7.1083   -2.4014    6.7264 N   0  0  0  0  0  0  0  0  0  0  0  0
    7.7089   -3.6102    6.4336 C   0  0  0  0  0  0  0  0  0  0  0  0
    8.3596   -4.0073    7.5783 C   0  0  0  0  0  0  0  0  0  0  0  0
    8.1795   -3.0957    8.5758 N   0  0  0  0  0  0  0  0  0  0  0  0
    7.4327   -2.1527    8.0446 C   0  0  0  0  0  0  0  0  0  0  0  0
    5.8107   -0.3531    6.2829 C   0  0  0  0  0  0  0  0  0  0  0  0
    5.0363    0.4357    5.4167 C   0  0  0  0  0  0  0  0  0  0  0  0
    4.7838    0.0179    4.1074 C   0  0  0  0  0  0  0  0  0  0  0  0
    4.0368    0.8051    3.2768 O   0  0  0  0  0  0  0  0  0  0  0  0
    0.4918    1.0116   -0.2747 H   0  0  0  0  0  0  0  0  0  0  0  0
    0.4159   -0.5566   -1.0855 H   0  0  0  0  0  0  0  0  0  0  0  0
    1.3594    0.8105   -1.7958 H   0  0  0  0  0  0  0  0  0  0  0  0
    2.0906   -1.0335   -2.6786 H   0  0  0  0  0  0  0  0  0  0  0  0
    3.8801   -5.0041   -3.7685 H   0  0  0  0  0  0  0  0  0  0  0  0
    3.6368   -5.5041   -6.1792 H   0  0  0  0  0  0  0  0  0  0  0  0
    3.0485   -3.6540   -7.7549 H   0  0  0  0  0  0  0  0  0  0  0  0
    2.7053   -1.3618   -6.8182 H   0  0  0  0  0  0  0  0  0  0  0  0
    5.2599   -3.8604   -2.1969 H   0  0  0  0  0  0  0  0  0  0  0  0
    5.5507   -3.2089    0.0689 H   0  0  0  0  0  0  0  0  0  0  0  0
    3.5780   -0.5449    1.7911 H   0  0  0  0  0  0  0  0  0  0  0  0
    6.4604   -2.9283    4.1585 H   0  0  0  0  0  0  0  0  0  0  0  0
    7.6467   -4.0885    5.4681 H   0  0  0  0  0  0  0  0  0  0  0  0
    8.9473   -4.9036    7.7303 H   0  0  0  0  0  0  0  0  0  0  0  0
    7.1024   -1.2749    8.5802 H   0  0  0  0  0  0  0  0  0  0  0  0
    6.0014    0.0384    7.2782 H   0  0  0  0  0  0  0  0  0  0  0  0
    4.6572    1.3870    5.7818 H   0  0  0  0  0  0  0  0  0  0  0  0
    3.8647    1.6580    3.7116 H   0  0  0  0  0  0  0  0  0  0  0  0
  1  2  1  0  0  0  0
  1 30  1  0  0  0  0
  1 31  1  0  0  0  0
  1 32  1  0  0  0  0
  2  3  1  0  0  0  0
  3  4  2  0  0  0  0
  3 14  1  0  0  0  0
  4  5  1  0  0  0  0
  4 33  1  0  0  0  0
  5  6  1  0  0  0  0
  5 12  2  0  0  0  0
  6  7  2  0  0  0  0
  6 11  1  0  0  0  0
  7  8  1  0  0  0  0
  7 34  1  0  0  0  0
  8  9  2  0  0  0  0
  8 35  1  0  0  0  0
  9 10  1  0  0  0  0
  9 36  1  0  0  0  0
 10 11  2  0  0  0  0
 10 37  1  0  0  0  0
 12 13  1  0  0  0  0
 12 38  1  0  0  0  0
 13 14  2  0  0  0  0
 13 39  1  0  0  0  0
 14 15  1  0  0  0  0
 15 16  1  0  0  0  0
 15 40  1  0  0  0  0
 16 17  2  0  0  0  0
 16 18  1  0  0  0  0
 18 19  2  0  0  0  0
 18 28  1  0  0  0  0
 19 20  1  0  0  0  0
 19 41  1  0  0  0  0
 20 21  1  0  0  0  0
 20 26  2  0  0  0  0
 21 22  1  0  0  0  0
 21 25  1  0  0  0  0
 22 23  2  0  0  0  0
 22 42  1  0  0  0  0
 23 24  1  0  0  0  0
 23 43  1  0  0  0  0
 24 25  2  0  0  0  0
 25 44  1  0  0  0  0
 26 27  1  0  0  0  0
 26 45  1  0  0  0  0
 27 28  2  0  0  0  0
 27 46  1  0  0  0  0
 28 29  1  0  0  0  0
 29 47  1  0  0  0  0
M  END
$$$$
