
 OpenBabel01122422403D

 61 63  0  0  1  0  0  0  0  0999 V2000
   -1.1543   -0.6303   -6.0878 C   0  0  0  0  0  0  0  0  0  0  0  0
   -2.0334   -1.7159   -5.5388 C   0  0  0  0  0  0  0  0  0  0  0  0
   -2.3576   -2.8285   -6.3201 C   0  0  0  0  0  0  0  0  0  0  0  0
   -3.2603   -3.7797   -5.8478 C   0  0  0  0  0  0  0  0  0  0  0  0
   -3.8146   -3.6502   -4.5738 C   0  0  0  0  0  0  0  0  0  0  0  0
   -3.4328   -2.5934   -3.7378 C   0  0  0  0  0  0  0  0  0  0  0  0
   -3.9595   -2.4936   -2.3235 C   0  0  0  0  0  0  0  0  0  0  0  0
   -3.6378   -3.7027   -1.4105 C   0  0  3  0  0  0  0  0  0  0  0  0
   -2.1339   -3.9827   -1.2764 C   0  0  0  0  0  0  0  0  0  0  0  0
   -1.4587   -2.8900   -0.6646 O   0  0  0  0  0  0  0  0  0  0  0  0
   -4.2274   -3.4606   -0.0043 C   0  0  0  0  0  0  0  0  0  0  0  0
   -5.6789   -3.3678   -0.0251 N   0  0  0  0  0  0  0  0  0  0  0  0
   -6.4209   -4.5228    0.0393 C   0  0  0  0  0  0  0  0  0  0  0  0
   -5.8811   -5.6244    0.0937 O   0  0  0  0  0  0  0  0  0  0  0  0
   -7.7757   -4.2815   -0.0227 N   0  0  0  0  0  0  0  0  0  0  0  0
   -8.7519   -5.3032    0.0262 C   0  0  0  0  0  0  0  0  0  0  0  0
   -8.4771   -6.5493    0.5974 C   0  0  0  0  0  0  0  0  0  0  0  0
   -9.3849   -7.6053    0.4886 C   0  0  0  0  0  0  0  0  0  0  0  0
  -10.5934   -7.4100   -0.1721 C   0  0  0  0  0  0  0  0  0  0  0  0
  -11.5425   -8.5417   -0.3875 C   0  0  0  0  0  0  0  0  0  0  0  0
  -12.7345   -8.3139   -0.5551 O   0  0  0  0  0  0  0  0  0  0  0  0
  -10.9905   -9.8052   -0.4302 N   0  0  0  0  0  0  0  0  0  0  0  0
  -11.7902  -10.9801   -0.6852 C   0  0  0  0  0  0  0  0  0  0  0  0
  -12.2125  -11.6737    0.5775 C   0  0  0  0  0  0  0  0  0  0  0  0
  -13.4118  -11.3348    1.2203 C   0  0  0  0  0  0  0  0  0  0  0  0
  -13.8440  -12.0550    2.3379 C   0  0  0  0  0  0  0  0  0  0  0  0
  -13.0721  -13.1038    2.8384 C   0  0  0  0  0  0  0  0  0  0  0  0
  -11.8531  -13.4139    2.2385 C   0  0  0  0  0  0  0  0  0  0  0  0
  -11.4320  -12.6963    1.1218 C   0  0  0  0  0  0  0  0  0  0  0  0
  -10.2604  -13.0167    0.5530 F   0  0  0  0  0  0  0  0  0  0  0  0
  -10.9268   -6.1359   -0.6421 C   0  0  0  0  0  0  0  0  0  0  0  0
  -10.0091   -5.0772   -0.5375 C   0  0  0  0  0  0  0  0  0  0  0  0
   -2.5669   -1.6109   -4.2452 C   0  0  0  0  0  0  0  0  0  0  0  0
   -0.7906   -0.8791   -7.0907 H   0  0  0  0  0  0  0  0  0  0  0  0
   -0.2838   -0.4759   -5.4435 H   0  0  0  0  0  0  0  0  0  0  0  0
   -1.7199    0.3044   -6.1637 H   0  0  0  0  0  0  0  0  0  0  0  0
   -1.9235   -2.9530   -7.3095 H   0  0  0  0  0  0  0  0  0  0  0  0
   -3.5346   -4.6224   -6.4772 H   0  0  0  0  0  0  0  0  0  0  0  0
   -4.5433   -4.3854   -4.2391 H   0  0  0  0  0  0  0  0  0  0  0  0
   -5.0471   -2.3633   -2.3943 H   0  0  0  0  0  0  0  0  0  0  0  0
   -3.5803   -1.5772   -1.8538 H   0  0  0  0  0  0  0  0  0  0  0  0
   -4.0992   -4.6018   -1.8402 H   0  0  0  0  0  0  0  0  0  0  0  0
   -1.6626   -4.1943   -2.2416 H   0  0  0  0  0  0  0  0  0  0  0  0
   -1.9720   -4.8641   -0.6448 H   0  0  0  0  0  0  0  0  0  0  0  0
   -1.3425   -2.2081   -1.3483 H   0  0  0  0  0  0  0  0  0  0  0  0
   -3.8468   -2.5352    0.4363 H   0  0  0  0  0  0  0  0  0  0  0  0
   -3.9401   -4.2819    0.6671 H   0  0  0  0  0  0  0  0  0  0  0  0
   -6.1008   -2.5404    0.3742 H   0  0  0  0  0  0  0  0  0  0  0  0
   -8.0418   -3.4090   -0.4573 H   0  0  0  0  0  0  0  0  0  0  0  0
   -7.5467   -6.7394    1.1244 H   0  0  0  0  0  0  0  0  0  0  0  0
   -9.1105   -8.5565    0.9299 H   0  0  0  0  0  0  0  0  0  0  0  0
   -9.9918   -9.9358   -0.3878 H   0  0  0  0  0  0  0  0  0  0  0  0
  -11.1884  -11.6557   -1.3030 H   0  0  0  0  0  0  0  0  0  0  0  0
  -12.6706  -10.7148   -1.2824 H   0  0  0  0  0  0  0  0  0  0  0  0
  -14.0222  -10.5167    0.8393 H   0  0  0  0  0  0  0  0  0  0  0  0
  -14.7906  -11.8030    2.8105 H   0  0  0  0  0  0  0  0  0  0  0  0
  -13.4199  -13.6763    3.6944 H   0  0  0  0  0  0  0  0  0  0  0  0
  -11.2348  -14.2182    2.6239 H   0  0  0  0  0  0  0  0  0  0  0  0
  -11.8919   -5.9651   -1.1209 H   0  0  0  0  0  0  0  0  0  0  0  0
  -10.2806   -4.1053   -0.9405 H   0  0  0  0  0  0  0  0  0  0  0  0
   -2.3082   -0.7481   -3.6343 H   0  0  0  0  0  0  0  0  0  0  0  0
  1  2  1  0  0  0  0
  1 34  1  0  0  0  0
  1 35  1  0  0  0  0
  1 36  1  0  0  0  0
  2  3  2  0  0  0  0
  2 33  1  0  0  0  0
  3  4  1  0  0  0  0
  3 37  1  0  0  0  0
  4  5  2  0  0  0  0
  4 38  1  0  0  0  0
  5  6  1  0  0  0  0
  5 39  1  0  0  0  0
  6  7  1  0  0  0  0
  6 33  2  0  0  0  0
  7  8  1  0  0  0  0
  7 40  1  0  0  0  0
  7 41  1  0  0  0  0
  8  9  1  0  0  0  0
  8 11  1  0  0  0  0
  8 42  1  0  0  0  0
  9 10  1  0  0  0  0
  9 43  1  0  0  0  0
  9 44  1  0  0  0  0
 10 45  1  0  0  0  0
 11 12  1  0  0  0  0
 11 46  1  0  0  0  0
 11 47  1  0  0  0  0
 12 13  1  0  0  0  0
 12 48  1  0  0  0  0
 13 14  2  0  0  0  0
 13 15  1  0  0  0  0
 15 16  1  0  0  0  0
 15 49  1  0  0  0  0
 16 17  2  0  0  0  0
 16 32  1  0  0  0  0
 17 18  1  0  0  0  0
 17 50  1  0  0  0  0
 18 19  2  0  0  0  0
 18 51  1  0  0  0  0
 19 20  1  0  0  0  0
 19 31  1  0  0  0  0
 20 21  2  0  0  0  0
 20 22  1  0  0  0  0
 22 23  1  0  0  0  0
 22 52  1  0  0  0  0
 23 24  1  0  0  0  0
 23 53  1  0  0  0  0
 23 54  1  0  0  0  0
 24 25  2  0  0  0  0
 24 29  1  0  0  0  0
 25 26  1  0  0  0  0
 25 55  1  0  0  0  0
 26 27  2  0  0  0  0
 26 56  1  0  0  0  0
 27 28  1  0  0  0  0
 27 57  1  0  0  0  0
 28 29  2  0  0  0  0
 28 58  1  0  0  0  0
 29 30  1  0  0  0  0
 31 32  2  0  0  0  0
 31 59  1  0  0  0  0
 32 60  1  0  0  0  0
 33 61  1  0  0  0  0
M  END
$$$$
