
 OpenBabel01122422403D

 51 54  0  0  0  0  0  0  0  0999 V2000
    1.2236   -0.0776    0.7598 O   0  0  0  0  0  0  0  0  0  0  0  0
    2.2092   -0.0223    0.0249 C   0  0  0  0  0  0  0  0  0  0  0  0
    2.6444   -1.1015   -0.6954 N   0  0  0  0  0  0  0  0  0  0  0  0
    2.0071   -2.3914   -0.5912 C   0  0  0  0  0  0  0  0  0  0  0  0
    2.5157   -3.2218    0.5681 C   0  0  0  0  0  0  0  0  0  0  0  0
    1.9262   -3.0899    1.8276 C   0  0  0  0  0  0  0  0  0  0  0  0
    2.3420   -3.9179    2.8674 C   0  0  0  0  0  0  0  0  0  0  0  0
    3.3298   -4.8636    2.6209 C   0  0  0  0  0  0  0  0  0  0  0  0
    3.7601   -5.8214    3.6366 C   0  0  0  0  0  0  0  0  0  0  0  0
    4.6565   -6.7627    3.3150 C   0  0  0  0  0  0  0  0  0  0  0  0
    5.2554   -6.8238    1.9567 C   0  0  0  0  0  0  0  0  0  0  0  0
    6.0678   -7.6978    1.6761 O   0  0  0  0  0  0  0  0  0  0  0  0
    4.8529   -5.8733    1.0651 N   0  0  0  0  0  0  0  0  0  0  0  0
    3.8859   -4.9106    1.3405 C   0  0  0  0  0  0  0  0  0  0  0  0
    3.5155   -4.1092    0.3198 N   0  0  0  0  0  0  0  0  0  0  0  0
    2.9740    1.2509   -0.1166 C   0  0  0  0  0  0  0  0  0  0  0  0
    2.4931    2.3486    0.6209 C   0  0  0  0  0  0  0  0  0  0  0  0
    3.0963    3.6091    0.5453 C   0  0  0  0  0  0  0  0  0  0  0  0
    2.5247    4.8263    1.2467 C   0  0  0  0  0  0  0  0  0  0  0  0
    1.7912    4.5526    2.5692 C   0  0  0  0  0  0  0  0  0  0  0  0
    1.2308    5.8077    3.2060 C   0  0  0  0  0  0  0  0  0  0  0  0
   -0.0632    6.2313    2.8812 C   0  0  0  0  0  0  0  0  0  0  0  0
   -0.6031    7.3794    3.4631 C   0  0  0  0  0  0  0  0  0  0  0  0
    0.1486    8.1188    4.3702 C   0  0  0  0  0  0  0  0  0  0  0  0
    1.4381    7.7071    4.7057 C   0  0  0  0  0  0  0  0  0  0  0  0
    1.9815    6.5562    4.1209 C   0  0  0  0  0  0  0  0  0  0  0  0
    4.2150    3.7558   -0.2900 C   0  0  0  0  0  0  0  0  0  0  0  0
    4.7189    2.6669   -1.0162 C   0  0  0  0  0  0  0  0  0  0  0  0
    4.0948    1.4251   -0.9385 C   0  0  0  0  0  0  0  0  0  0  0  0
    4.5851    0.3885   -1.6899 O   0  0  0  0  0  0  0  0  0  0  0  0
    3.4678   -1.0008   -1.2817 H   0  0  0  0  0  0  0  0  0  0  0  0
    2.1850   -2.9217   -1.5326 H   0  0  0  0  0  0  0  0  0  0  0  0
    0.9231   -2.2515   -0.4949 H   0  0  0  0  0  0  0  0  0  0  0  0
    1.1348   -2.3629    1.9930 H   0  0  0  0  0  0  0  0  0  0  0  0
    1.8716   -3.8331    3.8426 H   0  0  0  0  0  0  0  0  0  0  0  0
    3.3261   -5.7703    4.6287 H   0  0  0  0  0  0  0  0  0  0  0  0
    4.9848   -7.5174    4.0187 H   0  0  0  0  0  0  0  0  0  0  0  0
    5.2339   -5.8917    0.1320 H   0  0  0  0  0  0  0  0  0  0  0  0
    1.6123    2.2001    1.2453 H   0  0  0  0  0  0  0  0  0  0  0  0
    1.8412    5.3175    0.5406 H   0  0  0  0  0  0  0  0  0  0  0  0
    3.3412    5.5361    1.4399 H   0  0  0  0  0  0  0  0  0  0  0  0
    2.4579    4.0443    3.2770 H   0  0  0  0  0  0  0  0  0  0  0  0
    0.9506    3.8678    2.4067 H   0  0  0  0  0  0  0  0  0  0  0  0
   -0.6689    5.6580    2.1825 H   0  0  0  0  0  0  0  0  0  0  0  0
   -1.6132    7.6905    3.2085 H   0  0  0  0  0  0  0  0  0  0  0  0
   -0.2741    9.0116    4.8274 H   0  0  0  0  0  0  0  0  0  0  0  0
    2.0192    8.2787    5.4240 H   0  0  0  0  0  0  0  0  0  0  0  0
    2.9814    6.2428    4.4067 H   0  0  0  0  0  0  0  0  0  0  0  0
    4.6966    4.7233   -0.3921 H   0  0  0  0  0  0  0  0  0  0  0  0
    5.5926    2.8212   -1.6436 H   0  0  0  0  0  0  0  0  0  0  0  0
    5.2736    0.7290   -2.2877 H   0  0  0  0  0  0  0  0  0  0  0  0
  1  2  2  0  0  0  0
  2  3  1  0  0  0  0
  2 16  1  0  0  0  0
  3  4  1  0  0  0  0
  3 31  1  0  0  0  0
  4  5  1  0  0  0  0
  4 32  1  0  0  0  0
  4 33  1  0  0  0  0
  5  6  2  0  0  0  0
  5 15  1  0  0  0  0
  6  7  1  0  0  0  0
  6 34  1  0  0  0  0
  7  8  2  0  0  0  0
  7 35  1  0  0  0  0
  8  9  1  0  0  0  0
  8 14  1  0  0  0  0
  9 10  2  0  0  0  0
  9 36  1  0  0  0  0
 10 11  1  0  0  0  0
 10 37  1  0  0  0  0
 11 12  2  0  0  0  0
 11 13  1  0  0  0  0
 13 14  1  0  0  0  0
 13 38  1  0  0  0  0
 14 15  2  0  0  0  0
 16 17  2  0  0  0  0
 16 29  1  0  0  0  0
 17 18  1  0  0  0  0
 17 39  1  0  0  0  0
 18 19  1  0  0  0  0
 18 27  2  0  0  0  0
 19 20  1  0  0  0  0
 19 40  1  0  0  0  0
 19 41  1  0  0  0  0
 20 21  1  0  0  0  0
 20 42  1  0  0  0  0
 20 43  1  0  0  0  0
 21 22  2  0  0  0  0
 21 26  1  0  0  0  0
 22 23  1  0  0  0  0
 22 44  1  0  0  0  0
 23 24  2  0  0  0  0
 23 45  1  0  0  0  0
 24 25  1  0  0  0  0
 24 46  1  0  0  0  0
 25 26  2  0  0  0  0
 25 47  1  0  0  0  0
 26 48  1  0  0  0  0
 27 28  1  0  0  0  0
 27 49  1  0  0  0  0
 28 29  2  0  0  0  0
 28 50  1  0  0  0  0
 29 30  1  0  0  0  0
 30 51  1  0  0  0  0
M  END
$$$$
