
 OpenBabel01122422403D

 40 43  0  0  0  0  0  0  0  0999 V2000
    0.8156   -0.0479   -0.2109 O   0  0  0  0  0  0  0  0  0  0  0  0
    2.0298    0.0660   -0.1174 C   0  0  0  0  0  0  0  0  0  0  0  0
    2.7415    0.6271    0.9338 N   0  0  0  0  0  0  0  0  0  0  0  0
    2.1596    1.0951    2.1383 C   0  0  0  0  0  0  0  0  0  0  0  0
    0.8895    0.6701    2.5660 C   0  0  0  0  0  0  0  0  0  0  0  0
    0.2762    1.1789    3.7176 C   0  0  0  0  0  0  0  0  0  0  0  0
    1.0023    2.1330    4.4073 C   0  0  0  0  0  0  0  0  0  0  0  0
    0.6151    2.8127    5.5208 O   0  0  0  0  0  0  0  0  0  0  0  0
    1.6726    3.6485    5.7878 C   0  0  0  0  0  0  0  0  0  0  0  0
    1.5044    4.5685    6.9475 C   0  0  0  0  0  0  0  0  0  0  0  0
    0.4269    5.3890    6.7872 F   0  0  0  0  0  0  0  0  0  0  0  0
    1.2892    3.8870    8.1080 F   0  0  0  0  0  0  0  0  0  0  0  0
    2.6935    3.5226    4.9486 N   0  0  0  0  0  0  0  0  0  0  0  0
    2.2700    2.5649    4.0557 C   0  0  0  0  0  0  0  0  0  0  0  0
    2.8841    2.0212    2.9126 C   0  0  0  0  0  0  0  0  0  0  0  0
    2.8606   -0.3515   -1.3145 C   0  0  0  0  0  0  0  0  0  0  0  0
    3.9169    0.3634   -1.6071 N   0  0  0  0  0  0  0  0  0  0  0  0
    4.5968    0.0406   -2.7690 N   0  0  0  0  0  0  0  0  0  0  0  0
    5.7973    0.7832   -3.0163 C   0  0  0  0  0  0  0  0  0  0  0  0
    6.8305    0.2686   -3.8275 C   0  0  0  0  0  0  0  0  0  0  0  0
    7.9954    1.0018   -4.0743 C   0  0  0  0  0  0  0  0  0  0  0  0
    8.1435    2.2596   -3.5106 C   0  0  0  0  0  0  0  0  0  0  0  0
    9.2580    2.9636   -3.7478 F   0  0  0  0  0  0  0  0  0  0  0  0
    7.1520    2.7959   -2.7006 C   0  0  0  0  0  0  0  0  0  0  0  0
    5.9896    2.0586   -2.4506 C   0  0  0  0  0  0  0  0  0  0  0  0
    4.0745   -0.8422   -3.7000 C   0  0  0  0  0  0  0  0  0  0  0  0
    3.0170   -1.6281   -3.5025 C   0  0  0  0  0  0  0  0  0  0  0  0
    2.4311   -1.5307   -2.1646 C   0  0  0  0  0  0  0  0  0  0  0  0
    1.6586   -2.3798   -1.7485 O   0  0  0  0  0  0  0  0  0  0  0  0
    3.7087    0.8699    0.7377 H   0  0  0  0  0  0  0  0  0  0  0  0
    0.3349   -0.0849    2.0121 H   0  0  0  0  0  0  0  0  0  0  0  0
   -0.7100    0.8629    4.0362 H   0  0  0  0  0  0  0  0  0  0  0  0
    2.3880    5.1977    7.0827 H   0  0  0  0  0  0  0  0  0  0  0  0
    3.8708    2.3665    2.6269 H   0  0  0  0  0  0  0  0  0  0  0  0
    6.7580   -0.7268   -4.2582 H   0  0  0  0  0  0  0  0  0  0  0  0
    8.7861    0.5940   -4.6967 H   0  0  0  0  0  0  0  0  0  0  0  0
    7.2831    3.7843   -2.2733 H   0  0  0  0  0  0  0  0  0  0  0  0
    5.2149    2.5015   -1.8297 H   0  0  0  0  0  0  0  0  0  0  0  0
    4.5740   -0.8585   -4.6638 H   0  0  0  0  0  0  0  0  0  0  0  0
    2.6156   -2.3265   -4.2202 H   0  0  0  0  0  0  0  0  0  0  0  0
  1  2  2  0  0  0  0
  2  3  1  0  0  0  0
  2 16  1  0  0  0  0
  3  4  1  0  0  0  0
  3 30  1  0  0  0  0
  4  5  2  0  0  0  0
  4 15  1  0  0  0  0
  5  6  1  0  0  0  0
  5 31  1  0  0  0  0
  6  7  2  0  0  0  0
  6 32  1  0  0  0  0
  7  8  1  0  0  0  0
  7 14  1  0  0  0  0
  8  9  1  0  0  0  0
  9 10  1  0  0  0  0
  9 13  2  0  0  0  0
 10 11  1  0  0  0  0
 10 12  1  0  0  0  0
 10 33  1  0  0  0  0
 13 14  1  0  0  0  0
 14 15  2  0  0  0  0
 15 34  1  0  0  0  0
 16 17  2  0  0  0  0
 16 28  1  0  0  0  0
 17 18  1  0  0  0  0
 18 19  1  0  0  0  0
 18 26  1  0  0  0  0
 19 20  2  0  0  0  0
 19 25  1  0  0  0  0
 20 21  1  0  0  0  0
 20 35  1  0  0  0  0
 21 22  2  0  0  0  0
 21 36  1  0  0  0  0
 22 23  1  0  0  0  0
 22 24  1  0  0  0  0
 24 25  2  0  0  0  0
 24 37  1  0  0  0  0
 25 38  1  0  0  0  0
 26 27  2  0  0  0  0
 26 39  1  0  0  0  0
 27 28  1  0  0  0  0
 27 40  1  0  0  0  0
 28 29  2  0  0  0  0
M  END
$$$$
