
 OpenBabel01122422403D

 49 52  0  0  0  0  0  0  0  0999 V2000
    1.6227   -1.9089    1.6100 C   0  0  0  0  0  0  0  0  0  0  0  0
    0.6920   -0.8370    1.1267 C   0  0  0  0  0  0  0  0  0  0  0  0
    1.1911    0.4240    1.2300 N   0  0  0  0  0  0  0  0  0  0  0  0
    0.4107    1.4455    0.8132 C   0  0  0  0  0  0  0  0  0  0  0  0
    0.9423    2.8610    0.9452 C   0  0  0  0  0  0  0  0  0  0  0  0
    2.1977    3.0970    0.2172 N   0  0  0  0  0  0  0  0  0  0  0  0
   -0.8182    1.2966    0.3151 N   0  0  0  0  0  0  0  0  0  0  0  0
   -1.2694    0.0330    0.2294 C   0  0  0  0  0  0  0  0  0  0  0  0
   -0.5797   -1.1086    0.6210 C   0  0  0  0  0  0  0  0  0  0  0  0
   -1.1266   -2.4315    0.5528 N   0  0  0  0  0  0  0  0  0  0  0  0
   -2.3812   -2.7104    0.0274 C   0  0  0  0  0  0  0  0  0  0  0  0
   -3.0683   -1.8855   -0.5713 O   0  0  0  0  0  0  0  0  0  0  0  0
   -2.9599   -4.0746    0.1228 C   0  0  0  0  0  0  0  0  0  0  0  0
   -2.5240   -5.0798    0.9892 C   0  0  0  0  0  0  0  0  0  0  0  0
   -3.1943   -6.3182    1.0181 C   0  0  0  0  0  0  0  0  0  0  0  0
   -4.2832   -6.5493    0.1555 C   0  0  0  0  0  0  0  0  0  0  0  0
   -4.8366   -7.8549    0.0329 N   0  0  0  0  0  0  0  0  0  0  0  0
   -4.8639   -8.6744    1.1159 N   0  0  0  0  0  0  0  0  0  0  0  0
   -5.6099   -9.7067    0.7295 C   0  0  0  0  0  0  0  0  0  0  0  0
   -5.9511   -9.6416   -0.6284 C   0  0  0  0  0  0  0  0  0  0  0  0
   -5.3666   -8.4798   -1.1086 C   0  0  0  0  0  0  0  0  0  0  0  0
   -5.2572   -8.0112   -2.5067 C   0  0  0  0  0  0  0  0  0  0  0  0
   -6.2819   -8.2723   -3.4299 C   0  0  0  0  0  0  0  0  0  0  0  0
   -6.2184   -7.7626   -4.7327 C   0  0  0  0  0  0  0  0  0  0  0  0
   -5.1433   -6.9695   -5.1123 C   0  0  0  0  0  0  0  0  0  0  0  0
   -5.1103   -6.4370   -6.3404 F   0  0  0  0  0  0  0  0  0  0  0  0
   -4.0988   -6.7282   -4.2355 C   0  0  0  0  0  0  0  0  0  0  0  0
   -4.1348   -7.2918   -2.9585 C   0  0  0  0  0  0  0  0  0  0  0  0
   -4.7762   -5.5124   -0.6315 C   0  0  0  0  0  0  0  0  0  0  0  0
   -4.0978   -4.3008   -0.6690 C   0  0  0  0  0  0  0  0  0  0  0  0
    2.5654   -1.4682    1.9559 H   0  0  0  0  0  0  0  0  0  0  0  0
    1.8639   -2.6069    0.8031 H   0  0  0  0  0  0  0  0  0  0  0  0
    1.1846   -2.4513    2.4525 H   0  0  0  0  0  0  0  0  0  0  0  0
    1.0948    3.0621    2.0135 H   0  0  0  0  0  0  0  0  0  0  0  0
    0.1841    3.5705    0.5834 H   0  0  0  0  0  0  0  0  0  0  0  0
    2.8428    2.3542    0.4862 H   0  0  0  0  0  0  0  0  0  0  0  0
    2.5976    3.9727    0.5363 H   0  0  0  0  0  0  0  0  0  0  0  0
   -2.2749    0.0073   -0.1860 H   0  0  0  0  0  0  0  0  0  0  0  0
   -0.5567   -3.1922    0.8938 H   0  0  0  0  0  0  0  0  0  0  0  0
   -1.6811   -4.9354    1.6582 H   0  0  0  0  0  0  0  0  0  0  0  0
   -2.8329   -7.1122    1.6651 H   0  0  0  0  0  0  0  0  0  0  0  0
   -5.8471  -10.4825    1.4467 H   0  0  0  0  0  0  0  0  0  0  0  0
   -6.4907  -10.3826   -1.2015 H   0  0  0  0  0  0  0  0  0  0  0  0
   -7.1504   -8.8617   -3.1460 H   0  0  0  0  0  0  0  0  0  0  0  0
   -7.0093   -7.9652   -5.4477 H   0  0  0  0  0  0  0  0  0  0  0  0
   -3.2679   -6.0998   -4.5399 H   0  0  0  0  0  0  0  0  0  0  0  0
   -3.2823   -7.1147   -2.3065 H   0  0  0  0  0  0  0  0  0  0  0  0
   -5.6681   -5.6251   -1.2446 H   0  0  0  0  0  0  0  0  0  0  0  0
   -4.4755   -3.5270   -1.3380 H   0  0  0  0  0  0  0  0  0  0  0  0
  1  2  1  0  0  0  0
  1 31  1  0  0  0  0
  1 32  1  0  0  0  0
  1 33  1  0  0  0  0
  2  3  2  0  0  0  0
  2  9  1  0  0  0  0
  3  4  1  0  0  0  0
  4  5  1  0  0  0  0
  4  7  2  0  0  0  0
  5  6  1  0  0  0  0
  5 34  1  0  0  0  0
  5 35  1  0  0  0  0
  6 36  1  0  0  0  0
  6 37  1  0  0  0  0
  7  8  1  0  0  0  0
  8  9  2  0  0  0  0
  8 38  1  0  0  0  0
  9 10  1  0  0  0  0
 10 11  1  0  0  0  0
 10 39  1  0  0  0  0
 11 12  2  0  0  0  0
 11 13  1  0  0  0  0
 13 14  2  0  0  0  0
 13 30  1  0  0  0  0
 14 15  1  0  0  0  0
 14 40  1  0  0  0  0
 15 16  2  0  0  0  0
 15 41  1  0  0  0  0
 16 17  1  0  0  0  0
 16 29  1  0  0  0  0
 17 18  1  0  0  0  0
 17 21  1  0  0  0  0
 18 19  2  0  0  0  0
 19 20  1  0  0  0  0
 19 42  1  0  0  0  0
 20 21  2  0  0  0  0
 20 43  1  0  0  0  0
 21 22  1  0  0  0  0
 22 23  2  0  0  0  0
 22 28  1  0  0  0  0
 23 24  1  0  0  0  0
 23 44  1  0  0  0  0
 24 25  2  0  0  0  0
 24 45  1  0  0  0  0
 25 26  1  0  0  0  0
 25 27  1  0  0  0  0
 27 28  2  0  0  0  0
 27 46  1  0  0  0  0
 28 47  1  0  0  0  0
 29 30  2  0  0  0  0
 29 48  1  0  0  0  0
 30 49  1  0  0  0  0
M  END
$$$$
