
 OpenBabel01122422403D

 49 52  0  0  1  0  0  0  0  0999 V2000
    2.6486   -0.4023    2.1412 O   0  0  0  0  0  0  0  0  0  0  0  0
    2.2402    0.3376    1.2503 C   0  0  0  0  0  0  0  0  0  0  0  0
    0.7642    0.5068    0.9176 C   0  0  0  0  0  0  0  0  0  0  0  0
   -0.0920    1.1689    1.9649 C   0  0  0  0  0  0  0  0  0  0  0  0
   -1.4412    0.8373    2.0563 C   0  0  0  0  0  0  0  0  0  0  0  0
   -2.3355    1.4527    2.8625 N   0  0  0  0  0  0  0  0  0  0  0  0
   -1.9024    2.4613    3.6356 C   0  0  0  0  0  0  0  0  0  0  0  0
   -2.7995    3.1399    4.4505 C   0  0  0  0  0  0  0  0  0  0  0  0
   -2.3984    4.2043    5.2617 C   0  0  0  0  0  0  0  0  0  0  0  0
   -1.0673    4.5986    5.2672 C   0  0  0  0  0  0  0  0  0  0  0  0
   -0.1442    3.9364    4.4609 C   0  0  0  0  0  0  0  0  0  0  0  0
   -0.5522    2.8726    3.6351 C   0  0  0  0  0  0  0  0  0  0  0  0
    0.3482    2.2081    2.7844 C   0  0  0  0  0  0  0  0  0  0  0  0
    3.0868    1.0617    0.4176 N   0  0  0  0  0  0  0  0  0  0  0  0
    4.5448    1.0640    0.6669 C   0  0  3  0  0  0  0  0  0  0  0  0
    5.3357    1.1061   -0.6644 C   0  0  0  0  0  0  0  0  0  0  0  0
    6.5512    1.1936   -0.7595 O   0  0  0  0  0  0  0  0  0  0  0  0
    4.5375    1.0540   -1.7633 O   0  0  0  0  0  0  0  0  0  0  0  0
    4.8735    2.2369    1.5753 C   0  0  0  0  0  0  0  0  0  0  0  0
    5.0799    3.5202    1.0572 C   0  0  0  0  0  0  0  0  0  0  0  0
    5.3008    4.5912    1.9123 C   0  0  0  0  0  0  0  0  0  0  0  0
    5.2669    4.4017    3.2957 C   0  0  0  0  0  0  0  0  0  0  0  0
    5.0259    3.1384    3.8653 C   0  0  0  0  0  0  0  0  0  0  0  0
    4.8764    2.9695    5.3340 C   0  0  0  0  0  0  0  0  0  0  0  0
    4.0558    1.9682    5.8770 C   0  0  0  0  0  0  0  0  0  0  0  0
    3.8798    1.8913    7.2517 C   0  0  0  0  0  0  0  0  0  0  0  0
    4.4511    2.7374    8.1299 N   0  0  0  0  0  0  0  0  0  0  0  0
    5.2474    3.6896    7.6088 C   0  0  0  0  0  0  0  0  0  0  0  0
    5.4939    3.8349    6.2501 C   0  0  0  0  0  0  0  0  0  0  0  0
    4.8639    2.0600    2.9729 C   0  0  0  0  0  0  0  0  0  0  0  0
    0.3866   -0.5012    0.7045 H   0  0  0  0  0  0  0  0  0  0  0  0
    0.6589    1.0808   -0.0115 H   0  0  0  0  0  0  0  0  0  0  0  0
   -1.8722    0.0472    1.4432 H   0  0  0  0  0  0  0  0  0  0  0  0
   -3.8446    2.8350    4.4474 H   0  0  0  0  0  0  0  0  0  0  0  0
   -3.1256    4.7165    5.8833 H   0  0  0  0  0  0  0  0  0  0  0  0
   -0.7435    5.4248    5.8994 H   0  0  0  0  0  0  0  0  0  0  0  0
    0.8983    4.2594    4.4729 H   0  0  0  0  0  0  0  0  0  0  0  0
    1.3893    2.5276    2.7592 H   0  0  0  0  0  0  0  0  0  0  0  0
    2.7053    1.9419    0.0858 H   0  0  0  0  0  0  0  0  0  0  0  0
    4.8255    0.1153    1.1416 H   0  0  0  0  0  0  0  0  0  0  0  0
    3.6101    0.8903   -1.5004 H   0  0  0  0  0  0  0  0  0  0  0  0
    5.0841    3.7044   -0.0154 H   0  0  0  0  0  0  0  0  0  0  0  0
    5.4817    5.5826    1.5057 H   0  0  0  0  0  0  0  0  0  0  0  0
    5.4047    5.2798    3.9227 H   0  0  0  0  0  0  0  0  0  0  0  0
    3.5261    1.2567    5.2515 H   0  0  0  0  0  0  0  0  0  0  0  0
    3.2437    1.1267    7.6885 H   0  0  0  0  0  0  0  0  0  0  0  0
    5.6958    4.3647    8.3323 H   0  0  0  0  0  0  0  0  0  0  0  0
    6.1615    4.6275    5.9296 H   0  0  0  0  0  0  0  0  0  0  0  0
    4.7059    1.0535    3.3616 H   0  0  0  0  0  0  0  0  0  0  0  0
  1  2  2  0  0  0  0
  2  3  1  0  0  0  0
  2 14  1  0  0  0  0
  3  4  1  0  0  0  0
  3 31  1  0  0  0  0
  3 32  1  0  0  0  0
  4  5  2  0  0  0  0
  4 13  1  0  0  0  0
  5  6  1  0  0  0  0
  5 33  1  0  0  0  0
  6  7  2  0  0  0  0
  7  8  1  0  0  0  0
  7 12  1  0  0  0  0
  8  9  2  0  0  0  0
  8 34  1  0  0  0  0
  9 10  1  0  0  0  0
  9 35  1  0  0  0  0
 10 11  2  0  0  0  0
 10 36  1  0  0  0  0
 11 12  1  0  0  0  0
 11 37  1  0  0  0  0
 12 13  2  0  0  0  0
 13 38  1  0  0  0  0
 14 15  1  0  0  0  0
 14 39  1  0  0  0  0
 15 16  1  0  0  0  0
 15 19  1  0  0  0  0
 15 40  1  0  0  0  0
 16 17  2  0  0  0  0
 16 18  1  0  0  0  0
 18 41  1  0  0  0  0
 19 20  2  0  0  0  0
 19 30  1  0  0  0  0
 20 21  1  0  0  0  0
 20 42  1  0  0  0  0
 21 22  2  0  0  0  0
 21 43  1  0  0  0  0
 22 23  1  0  0  0  0
 22 44  1  0  0  0  0
 23 24  1  0  0  0  0
 23 30  2  0  0  0  0
 24 25  2  0  0  0  0
 24 29  1  0  0  0  0
 25 26  1  0  0  0  0
 25 45  1  0  0  0  0
 26 27  2  0  0  0  0
 26 46  1  0  0  0  0
 27 28  1  0  0  0  0
 28 29  2  0  0  0  0
 28 47  1  0  0  0  0
 29 48  1  0  0  0  0
 30 49  1  0  0  0  0
M  END
$$$$
