
 OpenBabel01122422403D

 47 50  0  0  0  0  0  0  0  0999 V2000
    1.1527    0.0620    0.0048 C   0  0  0  0  0  0  0  0  0  0  0  0
    2.6319   -0.0601   -0.0003 C   0  0  0  0  0  0  0  0  0  0  0  0
    3.3945    1.0347    0.0585 N   0  0  0  0  0  0  0  0  0  0  0  0
    4.6822    0.5812   -0.0318 N   0  0  0  0  0  0  0  0  0  0  0  0
    5.7592    1.5173   -0.0935 C   0  0  0  0  0  0  0  0  0  0  0  0
    5.4907    2.8855    0.0806 C   0  0  0  0  0  0  0  0  0  0  0  0
    6.5196    3.8262   -0.0087 C   0  0  0  0  0  0  0  0  0  0  0  0
    7.8214    3.4134   -0.2813 C   0  0  0  0  0  0  0  0  0  0  0  0
    8.0992    2.0592   -0.4501 C   0  0  0  0  0  0  0  0  0  0  0  0
    7.0758    1.1124   -0.3501 C   0  0  0  0  0  0  0  0  0  0  0  0
    4.7245   -0.8122   -0.0780 C   0  0  0  0  0  0  0  0  0  0  0  0
    5.8156   -1.6128   -0.1242 N   0  0  0  0  0  0  0  0  0  0  0  0
    5.5362   -2.9400   -0.1498 C   0  0  0  0  0  0  0  0  0  0  0  0
    6.6976   -3.8841   -0.1723 C   0  0  0  0  0  0  0  0  0  0  0  0
    6.5721   -5.0998   -0.1671 O   0  0  0  0  0  0  0  0  0  0  0  0
    7.8694   -3.1990   -0.1887 O   0  0  0  0  0  0  0  0  0  0  0  0
    9.0788   -3.9750   -0.1876 C   0  0  0  0  0  0  0  0  0  0  0  0
    9.9194   -3.6449   -1.3957 C   0  0  0  0  0  0  0  0  0  0  0  0
    9.8948   -2.3798   -1.9973 C   0  0  0  0  0  0  0  0  0  0  0  0
   10.7042   -2.0975   -3.1058 C   0  0  0  0  0  0  0  0  0  0  0  0
   11.5623   -3.0759   -3.6245 C   0  0  0  0  0  0  0  0  0  0  0  0
   12.4407   -2.8520   -4.8087 C   0  0  0  0  0  0  0  0  0  0  0  0
   12.4110   -1.6358   -5.4305 N   0  0  0  0  0  0  0  0  0  0  0  0
   13.1785   -3.7345   -5.2307 O   0  0  0  0  0  0  0  0  0  0  0  0
   11.6099   -4.3318   -3.0083 C   0  0  0  0  0  0  0  0  0  0  0  0
   10.8022   -4.5999   -1.9060 C   0  0  0  0  0  0  0  0  0  0  0  0
   10.8862   -5.8057   -1.3268 F   0  0  0  0  0  0  0  0  0  0  0  0
    4.2508   -3.4799   -0.1458 C   0  0  0  0  0  0  0  0  0  0  0  0
    3.1505   -2.6227   -0.1057 C   0  0  0  0  0  0  0  0  0  0  0  0
    3.4021   -1.2426   -0.0606 C   0  0  0  0  0  0  0  0  0  0  0  0
    0.8340    1.1098    0.0039 H   0  0  0  0  0  0  0  0  0  0  0  0
    0.7302   -0.4212    0.8911 H   0  0  0  0  0  0  0  0  0  0  0  0
    0.7305   -0.4166   -0.8850 H   0  0  0  0  0  0  0  0  0  0  0  0
    4.4819    3.2372    0.2909 H   0  0  0  0  0  0  0  0  0  0  0  0
    6.3009    4.8818    0.1307 H   0  0  0  0  0  0  0  0  0  0  0  0
    8.6193    4.1467   -0.3622 H   0  0  0  0  0  0  0  0  0  0  0  0
    9.1144    1.7355   -0.6648 H   0  0  0  0  0  0  0  0  0  0  0  0
    7.3449    0.0722   -0.4974 H   0  0  0  0  0  0  0  0  0  0  0  0
    8.8799   -5.0510   -0.1417 H   0  0  0  0  0  0  0  0  0  0  0  0
    9.6396   -3.6998    0.7129 H   0  0  0  0  0  0  0  0  0  0  0  0
    9.2391   -1.6023   -1.6089 H   0  0  0  0  0  0  0  0  0  0  0  0
   10.6395   -1.1054   -3.5382 H   0  0  0  0  0  0  0  0  0  0  0  0
   11.8299   -0.8559   -5.1709 H   0  0  0  0  0  0  0  0  0  0  0  0
   13.0103   -1.5276   -6.2393 H   0  0  0  0  0  0  0  0  0  0  0  0
   12.2738   -5.1102   -3.3771 H   0  0  0  0  0  0  0  0  0  0  0  0
    4.1024   -4.5563   -0.1673 H   0  0  0  0  0  0  0  0  0  0  0  0
    2.1385   -3.0157   -0.0971 H   0  0  0  0  0  0  0  0  0  0  0  0
  1  2  1  0  0  0  0
  1 31  1  0  0  0  0
  1 32  1  0  0  0  0
  1 33  1  0  0  0  0
  2  3  2  0  0  0  0
  2 30  1  0  0  0  0
  3  4  1  0  0  0  0
  4  5  1  0  0  0  0
  4 11  1  0  0  0  0
  5  6  2  0  0  0  0
  5 10  1  0  0  0  0
  6  7  1  0  0  0  0
  6 34  1  0  0  0  0
  7  8  2  0  0  0  0
  7 35  1  0  0  0  0
  8  9  1  0  0  0  0
  8 36  1  0  0  0  0
  9 10  2  0  0  0  0
  9 37  1  0  0  0  0
 10 38  1  0  0  0  0
 11 12  2  0  0  0  0
 11 30  1  0  0  0  0
 12 13  1  0  0  0  0
 13 14  1  0  0  0  0
 13 28  2  0  0  0  0
 14 15  2  0  0  0  0
 14 16  1  0  0  0  0
 16 17  1  0  0  0  0
 17 18  1  0  0  0  0
 17 39  1  0  0  0  0
 17 40  1  0  0  0  0
 18 19  2  0  0  0  0
 18 26  1  0  0  0  0
 19 20  1  0  0  0  0
 19 41  1  0  0  0  0
 20 21  2  0  0  0  0
 20 42  1  0  0  0  0
 21 22  1  0  0  0  0
 21 25  1  0  0  0  0
 22 23  1  0  0  0  0
 22 24  2  0  0  0  0
 23 43  1  0  0  0  0
 23 44  1  0  0  0  0
 25 26  2  0  0  0  0
 25 45  1  0  0  0  0
 26 27  1  0  0  0  0
 28 29  1  0  0  0  0
 28 46  1  0  0  0  0
 29 30  2  0  0  0  0
 29 47  1  0  0  0  0
M  END
$$$$
