
 OpenBabel01122422403D

 42 45  0  0  0  0  0  0  0  0999 V2000
    2.4462    1.6504    0.2597 O   0  0  0  0  0  0  0  0  0  0  0  0
    3.3216    0.8966   -0.1322 C   0  0  0  0  0  0  0  0  0  0  0  0
    3.3911    0.3147   -1.3863 N   0  0  0  0  0  0  0  0  0  0  0  0
    2.4719    0.3652   -2.4162 C   0  0  0  0  0  0  0  0  0  0  0  0
    1.2837    1.0040   -2.4309 C   0  0  0  0  0  0  0  0  0  0  0  0
    0.3904    0.9353   -3.5196 N   0  0  0  0  0  0  0  0  0  0  0  0
   -0.8888    1.6508   -3.5072 C   0  0  0  0  0  0  0  0  0  0  0  0
   -1.9623    1.2663   -4.3347 C   0  0  0  0  0  0  0  0  0  0  0  0
   -3.1608    1.9883   -4.3873 C   0  0  0  0  0  0  0  0  0  0  0  0
   -3.3301    3.1095   -3.5896 C   0  0  0  0  0  0  0  0  0  0  0  0
   -2.3068    3.4930   -2.7290 C   0  0  0  0  0  0  0  0  0  0  0  0
   -1.1031    2.7701   -2.6851 C   0  0  0  0  0  0  0  0  0  0  0  0
    0.7371    0.1883   -4.6666 C   0  0  0  0  0  0  0  0  0  0  0  0
    0.1121    0.0698   -5.7192 O   0  0  0  0  0  0  0  0  0  0  0  0
    2.0446   -0.5097   -4.6300 C   0  0  0  0  0  0  0  0  0  0  0  0
    2.8531   -0.4074   -3.5754 C   0  0  0  0  0  0  0  0  0  0  0  0
    4.4157    0.5056    0.7966 C   0  0  0  0  0  0  0  0  0  0  0  0
    5.7397    0.2151    0.4559 C   0  0  0  0  0  0  0  0  0  0  0  0
    6.1830    0.3809   -0.8382 O   0  0  0  0  0  0  0  0  0  0  0  0
    6.6668   -0.2514    1.4313 C   0  0  0  0  0  0  0  0  0  0  0  0
    7.9776   -0.7095    1.1351 C   0  0  0  0  0  0  0  0  0  0  0  0
    8.8474   -1.1370    2.1443 C   0  0  0  0  0  0  0  0  0  0  0  0
    8.4525   -1.0433    3.4699 C   0  0  0  0  0  0  0  0  0  0  0  0
    7.1631   -0.5981    3.7722 C   0  0  0  0  0  0  0  0  0  0  0  0
    6.7450   -0.4620    5.4512 Cl  0  0  0  0  0  0  0  0  0  0  0  0
    6.2316   -0.2646    2.7766 C   0  0  0  0  0  0  0  0  0  0  0  0
    4.9523    0.0237    3.0988 N   0  0  0  0  0  0  0  0  0  0  0  0
    4.0745    0.3541    2.1263 C   0  0  0  0  0  0  0  0  0  0  0  0
    4.1763   -0.3134   -1.5313 H   0  0  0  0  0  0  0  0  0  0  0  0
    0.9523    1.5590   -1.5656 H   0  0  0  0  0  0  0  0  0  0  0  0
   -1.9132    0.3779   -4.9572 H   0  0  0  0  0  0  0  0  0  0  0  0
   -3.9523    1.6660   -5.0597 H   0  0  0  0  0  0  0  0  0  0  0  0
   -4.2545    3.6791   -3.6379 H   0  0  0  0  0  0  0  0  0  0  0  0
   -2.4345    4.3695   -2.0990 H   0  0  0  0  0  0  0  0  0  0  0  0
   -0.3308    3.1490   -2.0224 H   0  0  0  0  0  0  0  0  0  0  0  0
    2.3068   -1.0836   -5.5086 H   0  0  0  0  0  0  0  0  0  0  0  0
    3.8092   -0.9193   -3.5939 H   0  0  0  0  0  0  0  0  0  0  0  0
    5.7567    1.1774   -1.2138 H   0  0  0  0  0  0  0  0  0  0  0  0
    8.3180   -0.7660    0.1022 H   0  0  0  0  0  0  0  0  0  0  0  0
    9.8311   -1.5329    1.9006 H   0  0  0  0  0  0  0  0  0  0  0  0
    9.1349   -1.3269    4.2682 H   0  0  0  0  0  0  0  0  0  0  0  0
    3.0475    0.4703    2.4650 H   0  0  0  0  0  0  0  0  0  0  0  0
  1  2  2  0  0  0  0
  2  3  1  0  0  0  0
  2 17  1  0  0  0  0
  3  4  1  0  0  0  0
  3 29  1  0  0  0  0
  4  5  2  0  0  0  0
  4 16  1  0  0  0  0
  5  6  1  0  0  0  0
  5 30  1  0  0  0  0
  6  7  1  0  0  0  0
  6 13  1  0  0  0  0
  7  8  2  0  0  0  0
  7 12  1  0  0  0  0
  8  9  1  0  0  0  0
  8 31  1  0  0  0  0
  9 10  2  0  0  0  0
  9 32  1  0  0  0  0
 10 11  1  0  0  0  0
 10 33  1  0  0  0  0
 11 12  2  0  0  0  0
 11 34  1  0  0  0  0
 12 35  1  0  0  0  0
 13 14  2  0  0  0  0
 13 15  1  0  0  0  0
 15 16  2  0  0  0  0
 15 36  1  0  0  0  0
 16 37  1  0  0  0  0
 17 18  2  0  0  0  0
 17 28  1  0  0  0  0
 18 19  1  0  0  0  0
 18 20  1  0  0  0  0
 19 38  1  0  0  0  0
 20 21  2  0  0  0  0
 20 26  1  0  0  0  0
 21 22  1  0  0  0  0
 21 39  1  0  0  0  0
 22 23  2  0  0  0  0
 22 40  1  0  0  0  0
 23 24  1  0  0  0  0
 23 41  1  0  0  0  0
 24 25  1  0  0  0  0
 24 26  2  0  0  0  0
 26 27  1  0  0  0  0
 27 28  2  0  0  0  0
 28 42  1  0  0  0  0
M  END
$$$$
