
 OpenBabel01122422403D

 43 46  0  0  0  0  0  0  0  0999 V2000
    1.0744   -0.0729    0.3020 O   0  0  0  0  0  0  0  0  0  0  0  0
    2.3042   -0.0523    0.2312 C   0  0  0  0  0  0  0  0  0  0  0  0
    3.0597    0.9180    0.8565 N   0  0  0  0  0  0  0  0  0  0  0  0
    2.3741    1.9944    1.5246 C   0  0  0  0  0  0  0  0  0  0  0  0
    3.3300    2.9497    2.1229 C   0  0  0  0  0  0  0  0  0  0  0  0
    3.8761    4.0829    1.5546 C   0  0  0  0  0  0  0  0  0  0  0  0
    4.6135    4.7244    2.5282 N   0  0  0  0  0  0  0  0  0  0  0  0
    5.2745    5.9822    2.4405 C   0  0  0  0  0  0  0  0  0  0  0  0
    5.1852    6.7695    1.2855 C   0  0  0  0  0  0  0  0  0  0  0  0
    5.8191    8.0163    1.2335 C   0  0  0  0  0  0  0  0  0  0  0  0
    6.5555    8.4934    2.3274 C   0  0  0  0  0  0  0  0  0  0  0  0
    7.2422    9.8369    2.2801 C   0  0  0  0  0  0  0  0  0  0  0  0
    7.1087   10.4735    1.0824 F   0  0  0  0  0  0  0  0  0  0  0  0
    6.7626   10.7018    3.2160 F   0  0  0  0  0  0  0  0  0  0  0  0
    8.5822    9.7462    2.5049 F   0  0  0  0  0  0  0  0  0  0  0  0
    6.6435    7.6998    3.4806 C   0  0  0  0  0  0  0  0  0  0  0  0
    6.0089    6.4552    3.5394 C   0  0  0  0  0  0  0  0  0  0  0  0
    4.6212    4.0071    3.6819 N   0  0  0  0  0  0  0  0  0  0  0  0
    3.8260    2.9652    3.4399 C   0  0  0  0  0  0  0  0  0  0  0  0
    3.0283   -1.0762   -0.5839 C   0  0  0  0  0  0  0  0  0  0  0  0
    2.2670   -1.9775   -1.3171 C   0  0  0  0  0  0  0  0  0  0  0  0
    2.9205   -2.8799   -2.1410 C   0  0  0  0  0  0  0  0  0  0  0  0
    4.3153   -2.8570   -2.2163 C   0  0  0  0  0  0  0  0  0  0  0  0
    4.9995   -3.7194   -3.0847 C   0  0  0  0  0  0  0  0  0  0  0  0
    6.3777   -3.6439   -3.1395 C   0  0  0  0  0  0  0  0  0  0  0  0
    7.0996   -2.8074   -2.3714 N   0  0  0  0  0  0  0  0  0  0  0  0
    6.3993   -1.9908   -1.5342 C   0  0  0  0  0  0  0  0  0  0  0  0
    5.0162   -1.9317   -1.4131 C   0  0  0  0  0  0  0  0  0  0  0  0
    4.3893   -1.0413   -0.6010 N   0  0  0  0  0  0  0  0  0  0  0  0
    4.0624    0.9268    0.7072 H   0  0  0  0  0  0  0  0  0  0  0  0
    1.7152    1.5679    2.2904 H   0  0  0  0  0  0  0  0  0  0  0  0
    1.7355    2.5018    0.7911 H   0  0  0  0  0  0  0  0  0  0  0  0
    3.7602    4.4887    0.5619 H   0  0  0  0  0  0  0  0  0  0  0  0
    4.6206    6.4548    0.4132 H   0  0  0  0  0  0  0  0  0  0  0  0
    5.7294    8.6178    0.3296 H   0  0  0  0  0  0  0  0  0  0  0  0
    7.2074    8.0493    4.3449 H   0  0  0  0  0  0  0  0  0  0  0  0
    6.0945    5.8645    4.4492 H   0  0  0  0  0  0  0  0  0  0  0  0
    3.6273    2.2629    4.2402 H   0  0  0  0  0  0  0  0  0  0  0  0
    1.1816   -1.9607   -1.2670 H   0  0  0  0  0  0  0  0  0  0  0  0
    2.3357   -3.5809   -2.7310 H   0  0  0  0  0  0  0  0  0  0  0  0
    4.4712   -4.4230   -3.7203 H   0  0  0  0  0  0  0  0  0  0  0  0
    6.9478   -4.2671   -3.8231 H   0  0  0  0  0  0  0  0  0  0  0  0
    7.0209   -1.3360   -0.9294 H   0  0  0  0  0  0  0  0  0  0  0  0
  1  2  2  0  0  0  0
  2  3  1  0  0  0  0
  2 20  1  0  0  0  0
  3  4  1  0  0  0  0
  3 30  1  0  0  0  0
  4  5  1  0  0  0  0
  4 31  1  0  0  0  0
  4 32  1  0  0  0  0
  5  6  2  0  0  0  0
  5 19  1  0  0  0  0
  6  7  1  0  0  0  0
  6 33  1  0  0  0  0
  7  8  1  0  0  0  0
  7 18  1  0  0  0  0
  8  9  2  0  0  0  0
  8 17  1  0  0  0  0
  9 10  1  0  0  0  0
  9 34  1  0  0  0  0
 10 11  2  0  0  0  0
 10 35  1  0  0  0  0
 11 12  1  0  0  0  0
 11 16  1  0  0  0  0
 12 13  1  0  0  0  0
 12 14  1  0  0  0  0
 12 15  1  0  0  0  0
 16 17  2  0  0  0  0
 16 36  1  0  0  0  0
 17 37  1  0  0  0  0
 18 19  2  0  0  0  0
 19 38  1  0  0  0  0
 20 21  2  0  0  0  0
 20 29  1  0  0  0  0
 21 22  1  0  0  0  0
 21 39  1  0  0  0  0
 22 23  2  0  0  0  0
 22 40  1  0  0  0  0
 23 24  1  0  0  0  0
 23 28  1  0  0  0  0
 24 25  2  0  0  0  0
 24 41  1  0  0  0  0
 25 26  1  0  0  0  0
 25 42  1  0  0  0  0
 26 27  2  0  0  0  0
 27 28  1  0  0  0  0
 27 43  1  0  0  0  0
 28 29  2  0  0  0  0
M  END
$$$$
