
 OpenBabel01122422403D

 40 43  0  0  0  0  0  0  0  0999 V2000
    0.9082   -0.0712    0.2505 O   0  0  0  0  0  0  0  0  0  0  0  0
    2.1331   -0.0502    0.1530 C   0  0  0  0  0  0  0  0  0  0  0  0
    2.8196   -0.7054   -0.8538 N   0  0  0  0  0  0  0  0  0  0  0  0
    2.2009   -1.3951   -1.8869 C   0  0  0  0  0  0  0  0  0  0  0  0
    0.9556   -1.1846   -2.3208 C   0  0  0  0  0  0  0  0  0  0  0  0
    0.3413   -1.8304   -3.3560 N   0  0  0  0  0  0  0  0  0  0  0  0
    1.0348   -2.7224   -3.9833 C   0  0  0  0  0  0  0  0  0  0  0  0
    0.4039   -3.4009   -5.1454 C   0  0  0  0  0  0  0  0  0  0  0  0
    1.0880   -4.3291   -5.8220 C   0  0  0  0  0  0  0  0  0  0  0  0
    2.4203   -4.6892   -5.4151 C   0  0  0  0  0  0  0  0  0  0  0  0
    2.9953   -4.0750   -4.3731 C   0  0  0  0  0  0  0  0  0  0  0  0
    2.3361   -3.0844   -3.6539 N   0  0  0  0  0  0  0  0  0  0  0  0
    2.9740   -2.4766   -2.5754 C   0  0  0  0  0  0  0  0  0  0  0  0
    4.0892   -2.7792   -2.1435 O   0  0  0  0  0  0  0  0  0  0  0  0
    2.9097    0.6171    1.1567 C   0  0  0  0  0  0  0  0  0  0  0  0
    2.4721    1.1617    2.3376 C   0  0  0  0  0  0  0  0  0  0  0  0
    3.6112    1.7522    2.9183 C   0  0  0  0  0  0  0  0  0  0  0  0
    3.6653    2.4756    4.1864 C   0  0  0  0  0  0  0  0  0  0  0  0
    2.8364    2.0169    5.2359 C   0  0  0  0  0  0  0  0  0  0  0  0
    2.8794    2.5932    6.5045 C   0  0  0  0  0  0  0  0  0  0  0  0
    3.7708    3.6245    6.7564 C   0  0  0  0  0  0  0  0  0  0  0  0
    4.5651    4.1189    5.7211 C   0  0  0  0  0  0  0  0  0  0  0  0
    4.4940    3.5892    4.4105 C   0  0  0  0  0  0  0  0  0  0  0  0
    5.2721    4.3252    3.3389 C   0  0  0  0  0  0  0  0  0  0  0  0
    5.0487    3.9697    2.0484 F   0  0  0  0  0  0  0  0  0  0  0  0
    4.9775    5.6628    3.3651 F   0  0  0  0  0  0  0  0  0  0  0  0
    6.6190    4.2548    3.5322 F   0  0  0  0  0  0  0  0  0  0  0  0
    4.6964    1.4940    2.1696 N   0  0  0  0  0  0  0  0  0  0  0  0
    4.2440    0.8270    1.0383 O   0  0  0  0  0  0  0  0  0  0  0  0
    3.8249   -0.8390   -0.7561 H   0  0  0  0  0  0  0  0  0  0  0  0
    0.3316   -0.4103   -1.8820 H   0  0  0  0  0  0  0  0  0  0  0  0
   -0.6007   -3.0950   -5.4126 H   0  0  0  0  0  0  0  0  0  0  0  0
    0.6505   -4.8202   -6.6846 H   0  0  0  0  0  0  0  0  0  0  0  0
    2.9397   -5.4627   -5.9707 H   0  0  0  0  0  0  0  0  0  0  0  0
    4.0019   -4.3311   -4.0523 H   0  0  0  0  0  0  0  0  0  0  0  0
    1.4539    1.1370    2.6983 H   0  0  0  0  0  0  0  0  0  0  0  0
    2.1468    1.1879    5.0813 H   0  0  0  0  0  0  0  0  0  0  0  0
    2.2293    2.2236    7.2942 H   0  0  0  0  0  0  0  0  0  0  0  0
    3.8352    4.0578    7.7516 H   0  0  0  0  0  0  0  0  0  0  0  0
    5.2395    4.9497    5.9312 H   0  0  0  0  0  0  0  0  0  0  0  0
  1  2  2  0  0  0  0
  2  3  1  0  0  0  0
  2 15  1  0  0  0  0
  3  4  1  0  0  0  0
  3 30  1  0  0  0  0
  4  5  2  0  0  0  0
  4 13  1  0  0  0  0
  5  6  1  0  0  0  0
  5 31  1  0  0  0  0
  6  7  2  0  0  0  0
  7  8  1  0  0  0  0
  7 12  1  0  0  0  0
  8  9  2  0  0  0  0
  8 32  1  0  0  0  0
  9 10  1  0  0  0  0
  9 33  1  0  0  0  0
 10 11  2  0  0  0  0
 10 34  1  0  0  0  0
 11 12  1  0  0  0  0
 11 35  1  0  0  0  0
 12 13  1  0  0  0  0
 13 14  2  0  0  0  0
 15 16  2  0  0  0  0
 15 29  1  0  0  0  0
 16 17  1  0  0  0  0
 16 36  1  0  0  0  0
 17 18  1  0  0  0  0
 17 28  2  0  0  0  0
 18 19  2  0  0  0  0
 18 23  1  0  0  0  0
 19 20  1  0  0  0  0
 19 37  1  0  0  0  0
 20 21  2  0  0  0  0
 20 38  1  0  0  0  0
 21 22  1  0  0  0  0
 21 39  1  0  0  0  0
 22 23  2  0  0  0  0
 22 40  1  0  0  0  0
 23 24  1  0  0  0  0
 24 25  1  0  0  0  0
 24 26  1  0  0  0  0
 24 27  1  0  0  0  0
 28 29  1  0  0  0  0
M  END
$$$$
