
 OpenBabel01122422403D

 45 48  0  0  0  0  0  0  0  0999 V2000
    2.6840   -2.4038    0.0574 C   0  0  0  0  0  0  0  0  0  0  0  0
    3.2836   -1.0459    0.0998 C   0  0  0  0  0  0  0  0  0  0  0  0
    4.6140   -0.6732    0.1550 C   0  0  0  0  0  0  0  0  0  0  0  0
    4.6288    0.7283   -0.0128 C   0  0  0  0  0  0  0  0  0  0  0  0
    5.7716    1.5047    0.0081 N   0  0  0  0  0  0  0  0  0  0  0  0
    5.7720    2.8888   -0.1130 C   0  0  0  0  0  0  0  0  0  0  0  0
    4.8054    3.6195   -0.2734 O   0  0  0  0  0  0  0  0  0  0  0  0
    7.1481    3.5532   -0.0239 C   0  0  0  0  0  0  0  0  0  0  0  0
    7.1878    4.8553   -0.1483 N   0  0  0  0  0  0  0  0  0  0  0  0
    8.4026    5.4979   -0.0980 N   0  0  0  0  0  0  0  0  0  0  0  0
    8.3432    6.9253   -0.2153 C   0  0  0  0  0  0  0  0  0  0  0  0
    7.2146    7.6325    0.2435 C   0  0  0  0  0  0  0  0  0  0  0  0
    7.1513    9.0308    0.1780 C   0  0  0  0  0  0  0  0  0  0  0  0
    8.2069    9.7557   -0.3689 C   0  0  0  0  0  0  0  0  0  0  0  0
    9.3270    9.0826   -0.8455 C   0  0  0  0  0  0  0  0  0  0  0  0
    9.3889    7.6901   -0.7667 C   0  0  0  0  0  0  0  0  0  0  0  0
   10.4840    7.0978   -1.2706 F   0  0  0  0  0  0  0  0  0  0  0  0
    9.5819    4.8152    0.1206 C   0  0  0  0  0  0  0  0  0  0  0  0
    9.6825    3.4961    0.2862 C   0  0  0  0  0  0  0  0  0  0  0  0
    8.4174    2.7624    0.2118 C   0  0  0  0  0  0  0  0  0  0  0  0
    8.3702    1.5467    0.3491 O   0  0  0  0  0  0  0  0  0  0  0  0
    3.4000    1.1868   -0.2210 N   0  0  0  0  0  0  0  0  0  0  0  0
    2.5700    0.1366   -0.0324 N   0  0  0  0  0  0  0  0  0  0  0  0
    1.1677    0.3598    0.0280 C   0  0  0  0  0  0  0  0  0  0  0  0
    0.6082    1.4114   -0.7120 C   0  0  0  0  0  0  0  0  0  0  0  0
   -0.7596    1.6801   -0.6216 C   0  0  0  0  0  0  0  0  0  0  0  0
   -1.5660    0.9251    0.2291 C   0  0  0  0  0  0  0  0  0  0  0  0
   -1.0122   -0.1139    0.9742 C   0  0  0  0  0  0  0  0  0  0  0  0
    0.3504   -0.4019    0.8712 C   0  0  0  0  0  0  0  0  0  0  0  0
    3.4623   -3.1679   -0.0347 H   0  0  0  0  0  0  0  0  0  0  0  0
    2.0205   -2.5048   -0.8085 H   0  0  0  0  0  0  0  0  0  0  0  0
    2.1238   -2.6351    0.9654 H   0  0  0  0  0  0  0  0  0  0  0  0
    5.4589   -1.3389    0.2635 H   0  0  0  0  0  0  0  0  0  0  0  0
    6.6497    1.0223    0.1658 H   0  0  0  0  0  0  0  0  0  0  0  0
    6.3776    7.0926    0.6837 H   0  0  0  0  0  0  0  0  0  0  0  0
    6.2741    9.5493    0.5584 H   0  0  0  0  0  0  0  0  0  0  0  0
    8.1544   10.8398   -0.4289 H   0  0  0  0  0  0  0  0  0  0  0  0
   10.1566    9.6281   -1.2842 H   0  0  0  0  0  0  0  0  0  0  0  0
   10.4721    5.4296    0.1947 H   0  0  0  0  0  0  0  0  0  0  0  0
   10.6067    2.9751    0.4814 H   0  0  0  0  0  0  0  0  0  0  0  0
    1.2272    2.0168   -1.3732 H   0  0  0  0  0  0  0  0  0  0  0  0
   -1.1915    2.4895   -1.2045 H   0  0  0  0  0  0  0  0  0  0  0  0
   -2.6230    1.1587    0.3260 H   0  0  0  0  0  0  0  0  0  0  0  0
   -1.6352   -0.6844    1.6585 H   0  0  0  0  0  0  0  0  0  0  0  0
    0.7558   -1.1659    1.5239 H   0  0  0  0  0  0  0  0  0  0  0  0
  1  2  1  0  0  0  0
  1 30  1  0  0  0  0
  1 31  1  0  0  0  0
  1 32  1  0  0  0  0
  2  3  2  0  0  0  0
  2 23  1  0  0  0  0
  3  4  1  0  0  0  0
  3 33  1  0  0  0  0
  4  5  1  0  0  0  0
  4 22  2  0  0  0  0
  5  6  1  0  0  0  0
  5 34  1  0  0  0  0
  6  7  2  0  0  0  0
  6  8  1  0  0  0  0
  8  9  2  0  0  0  0
  8 20  1  0  0  0  0
  9 10  1  0  0  0  0
 10 11  1  0  0  0  0
 10 18  1  0  0  0  0
 11 12  2  0  0  0  0
 11 16  1  0  0  0  0
 12 13  1  0  0  0  0
 12 35  1  0  0  0  0
 13 14  2  0  0  0  0
 13 36  1  0  0  0  0
 14 15  1  0  0  0  0
 14 37  1  0  0  0  0
 15 16  2  0  0  0  0
 15 38  1  0  0  0  0
 16 17  1  0  0  0  0
 18 19  2  0  0  0  0
 18 39  1  0  0  0  0
 19 20  1  0  0  0  0
 19 40  1  0  0  0  0
 20 21  2  0  0  0  0
 22 23  1  0  0  0  0
 23 24  1  0  0  0  0
 24 25  2  0  0  0  0
 24 29  1  0  0  0  0
 25 26  1  0  0  0  0
 25 41  1  0  0  0  0
 26 27  2  0  0  0  0
 26 42  1  0  0  0  0
 27 28  1  0  0  0  0
 27 43  1  0  0  0  0
 28 29  2  0  0  0  0
 28 44  1  0  0  0  0
 29 45  1  0  0  0  0
M  END
$$$$
