
 OpenBabel01122422403D

 48 50  0  0  1  0  0  0  0  0999 V2000
    1.2190   -1.7140   -1.6146 C   0  0  0  0  0  0  0  0  0  0  0  0
    2.5808   -1.5226   -1.2268 O   0  0  0  0  0  0  0  0  0  0  0  0
    3.1477   -0.3903   -1.7404 C   0  0  0  0  0  0  0  0  0  0  0  0
    2.5723    0.3815   -2.5025 O   0  0  0  0  0  0  0  0  0  0  0  0
    4.6075   -0.1952   -1.2631 C   0  0  3  0  0  0  0  0  0  0  0  0
    5.0957   -1.2306   -0.3549 N   0  0  0  0  0  0  0  0  0  0  0  0
    4.8980   -1.1312    1.0029 C   0  0  0  0  0  0  0  0  0  0  0  0
    4.4515   -0.1280    1.5466 O   0  0  0  0  0  0  0  0  0  0  0  0
    5.2461   -2.3267    1.8178 C   0  0  0  0  0  0  0  0  0  0  0  0
    5.6557   -2.1505    3.1457 C   0  0  0  0  0  0  0  0  0  0  0  0
    5.8761   -3.2630    3.9656 C   0  0  0  0  0  0  0  0  0  0  0  0
    5.6634   -4.5497    3.4648 C   0  0  0  0  0  0  0  0  0  0  0  0
    5.7786   -5.5754    4.3671 O   0  0  0  0  0  0  0  0  0  0  0  0
    5.0146   -6.7376    4.0267 C   0  0  0  0  0  0  0  0  0  0  0  0
    4.7029   -7.5373    5.2553 C   0  0  0  0  0  0  0  0  0  0  0  0
    4.0142   -6.9713    6.3319 C   0  0  0  0  0  0  0  0  0  0  0  0
    3.6693   -7.7647    7.4203 C   0  0  0  0  0  0  0  0  0  0  0  0
    4.0238   -9.1029    7.3929 C   0  0  0  0  0  0  0  0  0  0  0  0
    4.6843   -9.6868    6.3698 N   0  0  0  0  0  0  0  0  0  0  0  0
    5.0082   -8.8919    5.3264 C   0  0  0  0  0  0  0  0  0  0  0  0
    5.3297   -4.7237    2.1213 C   0  0  0  0  0  0  0  0  0  0  0  0
    5.0991   -3.6151    1.3050 C   0  0  0  0  0  0  0  0  0  0  0  0
    5.5571   -0.0599   -2.4375 C   0  0  0  0  0  0  0  0  0  0  0  0
    6.3750    1.0740   -2.5651 C   0  0  0  0  0  0  0  0  0  0  0  0
    7.2424    1.1944   -3.6534 C   0  0  0  0  0  0  0  0  0  0  0  0
    7.3006    0.1821   -4.6066 C   0  0  0  0  0  0  0  0  0  0  0  0
    8.1365    0.3037   -5.6451 F   0  0  0  0  0  0  0  0  0  0  0  0
    6.5095   -0.9516   -4.4928 C   0  0  0  0  0  0  0  0  0  0  0  0
    5.6485   -1.0650   -3.4113 C   0  0  0  0  0  0  0  0  0  0  0  0
    4.9037   -2.1732   -3.2909 F   0  0  0  0  0  0  0  0  0  0  0  0
    0.8582   -2.6333   -1.1452 H   0  0  0  0  0  0  0  0  0  0  0  0
    1.1384   -1.8257   -2.7006 H   0  0  0  0  0  0  0  0  0  0  0  0
    0.6005   -0.8818   -1.2637 H   0  0  0  0  0  0  0  0  0  0  0  0
    4.5888    0.7485   -0.7030 H   0  0  0  0  0  0  0  0  0  0  0  0
    5.4030   -2.0983   -0.7686 H   0  0  0  0  0  0  0  0  0  0  0  0
    5.7805   -1.1491    3.5528 H   0  0  0  0  0  0  0  0  0  0  0  0
    6.1691   -3.1218    5.0026 H   0  0  0  0  0  0  0  0  0  0  0  0
    5.5890   -7.3392    3.3122 H   0  0  0  0  0  0  0  0  0  0  0  0
    4.0485   -6.4697    3.5758 H   0  0  0  0  0  0  0  0  0  0  0  0
    3.7378   -5.9200    6.3160 H   0  0  0  0  0  0  0  0  0  0  0  0
    3.1322   -7.3497    8.2657 H   0  0  0  0  0  0  0  0  0  0  0  0
    3.7745   -9.7638    8.2183 H   0  0  0  0  0  0  0  0  0  0  0  0
    5.5262   -9.3996    4.5168 H   0  0  0  0  0  0  0  0  0  0  0  0
    5.2063   -5.7111    1.6890 H   0  0  0  0  0  0  0  0  0  0  0  0
    4.7541   -3.7922    0.2894 H   0  0  0  0  0  0  0  0  0  0  0  0
    6.3372    1.8699   -1.8244 H   0  0  0  0  0  0  0  0  0  0  0  0
    7.8724    2.0721   -3.7638 H   0  0  0  0  0  0  0  0  0  0  0  0
    6.5679   -1.7374   -5.2400 H   0  0  0  0  0  0  0  0  0  0  0  0
  1  2  1  0  0  0  0
  1 31  1  0  0  0  0
  1 32  1  0  0  0  0
  1 33  1  0  0  0  0
  2  3  1  0  0  0  0
  3  4  2  0  0  0  0
  3  5  1  0  0  0  0
  5  6  1  0  0  0  0
  5 23  1  0  0  0  0
  5 34  1  0  0  0  0
  6  7  1  0  0  0  0
  6 35  1  0  0  0  0
  7  8  2  0  0  0  0
  7  9  1  0  0  0  0
  9 10  2  0  0  0  0
  9 22  1  0  0  0  0
 10 11  1  0  0  0  0
 10 36  1  0  0  0  0
 11 12  2  0  0  0  0
 11 37  1  0  0  0  0
 12 13  1  0  0  0  0
 12 21  1  0  0  0  0
 13 14  1  0  0  0  0
 14 15  1  0  0  0  0
 14 38  1  0  0  0  0
 14 39  1  0  0  0  0
 15 16  2  0  0  0  0
 15 20  1  0  0  0  0
 16 17  1  0  0  0  0
 16 40  1  0  0  0  0
 17 18  2  0  0  0  0
 17 41  1  0  0  0  0
 18 19  1  0  0  0  0
 18 42  1  0  0  0  0
 19 20  2  0  0  0  0
 20 43  1  0  0  0  0
 21 22  2  0  0  0  0
 21 44  1  0  0  0  0
 22 45  1  0  0  0  0
 23 24  2  0  0  0  0
 23 29  1  0  0  0  0
 24 25  1  0  0  0  0
 24 46  1  0  0  0  0
 25 26  2  0  0  0  0
 25 47  1  0  0  0  0
 26 27  1  0  0  0  0
 26 28  1  0  0  0  0
 28 29  2  0  0  0  0
 28 48  1  0  0  0  0
 29 30  1  0  0  0  0
M  END
$$$$
