
 OpenBabel01122422403D

 50 52  0  0  0  0  0  0  0  0999 V2000
    0.9183   -1.1529   -1.3749 C   0  0  0  0  0  0  0  0  0  0  0  0
    2.3531   -0.9005   -1.2104 N   0  0  0  0  0  0  0  0  0  0  0  0
    3.1178   -1.4821   -0.1775 C   0  0  0  0  0  0  0  0  0  0  0  0
    4.2625   -1.1078    0.0957 O   0  0  0  0  0  0  0  0  0  0  0  0
    2.4553   -2.5588    0.7016 C   0  0  0  0  0  0  0  0  0  0  0  0
    3.3987   -3.6161    1.2461 C   0  0  0  0  0  0  0  0  0  0  0  0
    4.5138   -3.2600    2.0087 C   0  0  0  0  0  0  0  0  0  0  0  0
    5.4178   -4.2261    2.4494 C   0  0  0  0  0  0  0  0  0  0  0  0
    5.2147   -5.5756    2.1700 C   0  0  0  0  0  0  0  0  0  0  0  0
    6.1316   -6.5793    2.5455 N   0  0  0  0  0  0  0  0  0  0  0  0
    7.4372   -6.3709    2.9508 C   0  0  0  0  0  0  0  0  0  0  0  0
    8.0325   -5.2990    3.0217 O   0  0  0  0  0  0  0  0  0  0  0  0
    8.2425   -7.5752    3.2351 C   0  0  0  0  0  0  0  0  0  0  0  0
    8.1874   -8.6722    2.3663 C   0  0  0  0  0  0  0  0  0  0  0  0
    7.2700   -8.7686    1.3144 N   0  0  0  0  0  0  0  0  0  0  0  0
    8.9959   -9.7419    2.4839 N   0  0  0  0  0  0  0  0  0  0  0  0
    9.9229   -9.7209    3.4609 C   0  0  0  0  0  0  0  0  0  0  0  0
   10.0435   -8.6914    4.3738 C   0  0  0  0  0  0  0  0  0  0  0  0
    9.1716   -7.5940    4.2883 C   0  0  0  0  0  0  0  0  0  0  0  0
    9.3024   -6.5242    5.3420 C   0  0  0  0  0  0  0  0  0  0  0  0
    8.2815   -5.6398    5.4554 F   0  0  0  0  0  0  0  0  0  0  0  0
    9.3895   -7.0945    6.5856 F   0  0  0  0  0  0  0  0  0  0  0  0
   10.4495   -5.8030    5.2090 F   0  0  0  0  0  0  0  0  0  0  0  0
    4.0574   -5.9523    1.4803 C   0  0  0  0  0  0  0  0  0  0  0  0
    3.1610   -4.9797    1.0149 C   0  0  0  0  0  0  0  0  0  0  0  0
    2.9428    0.0487   -2.1437 C   0  0  0  0  0  0  0  0  0  0  0  0
    4.3251    0.1105   -2.3839 C   0  0  0  0  0  0  0  0  0  0  0  0
    4.8752    1.0148   -3.3029 C   0  0  0  0  0  0  0  0  0  0  0  0
    4.0532    1.8795   -4.0134 C   0  0  0  0  0  0  0  0  0  0  0  0
    2.6818    1.8412   -3.8011 C   0  0  0  0  0  0  0  0  0  0  0  0
    2.1360    0.9352   -2.8824 C   0  0  0  0  0  0  0  0  0  0  0  0
    0.5144   -1.9105   -0.7089 H   0  0  0  0  0  0  0  0  0  0  0  0
    0.7351   -1.4867   -2.4023 H   0  0  0  0  0  0  0  0  0  0  0  0
    0.3575   -0.2393   -1.1587 H   0  0  0  0  0  0  0  0  0  0  0  0
    1.6912   -3.0991    0.1438 H   0  0  0  0  0  0  0  0  0  0  0  0
    1.9687   -2.0489    1.5420 H   0  0  0  0  0  0  0  0  0  0  0  0
    4.7214   -2.2159    2.2378 H   0  0  0  0  0  0  0  0  0  0  0  0
    6.2809   -3.8809    3.0097 H   0  0  0  0  0  0  0  0  0  0  0  0
    5.8631   -7.5413    2.3455 H   0  0  0  0  0  0  0  0  0  0  0  0
    7.3566   -7.9740    0.6820 H   0  0  0  0  0  0  0  0  0  0  0  0
    7.4871   -9.6392    0.8291 H   0  0  0  0  0  0  0  0  0  0  0  0
   10.5873  -10.5797    3.4916 H   0  0  0  0  0  0  0  0  0  0  0  0
   10.8097   -8.7371    5.1441 H   0  0  0  0  0  0  0  0  0  0  0  0
    3.8505   -6.9973    1.2643 H   0  0  0  0  0  0  0  0  0  0  0  0
    2.2829   -5.2998    0.4574 H   0  0  0  0  0  0  0  0  0  0  0  0
    5.0229   -0.5593   -1.8897 H   0  0  0  0  0  0  0  0  0  0  0  0
    5.9510    1.0319   -3.4600 H   0  0  0  0  0  0  0  0  0  0  0  0
    4.4796    2.5776   -4.7280 H   0  0  0  0  0  0  0  0  0  0  0  0
    2.0289    2.5188   -4.3451 H   0  0  0  0  0  0  0  0  0  0  0  0
    1.0601    0.9750   -2.7505 H   0  0  0  0  0  0  0  0  0  0  0  0
  1  2  1  0  0  0  0
  1 32  1  0  0  0  0
  1 33  1  0  0  0  0
  1 34  1  0  0  0  0
  2  3  1  0  0  0  0
  2 26  1  0  0  0  0
  3  4  2  0  0  0  0
  3  5  1  0  0  0  0
  5  6  1  0  0  0  0
  5 35  1  0  0  0  0
  5 36  1  0  0  0  0
  6  7  2  0  0  0  0
  6 25  1  0  0  0  0
  7  8  1  0  0  0  0
  7 37  1  0  0  0  0
  8  9  2  0  0  0  0
  8 38  1  0  0  0  0
  9 10  1  0  0  0  0
  9 24  1  0  0  0  0
 10 11  1  0  0  0  0
 10 39  1  0  0  0  0
 11 12  2  0  0  0  0
 11 13  1  0  0  0  0
 13 14  2  0  0  0  0
 13 19  1  0  0  0  0
 14 15  1  0  0  0  0
 14 16  1  0  0  0  0
 15 40  1  0  0  0  0
 15 41  1  0  0  0  0
 16 17  2  0  0  0  0
 17 18  1  0  0  0  0
 17 42  1  0  0  0  0
 18 19  2  0  0  0  0
 18 43  1  0  0  0  0
 19 20  1  0  0  0  0
 20 21  1  0  0  0  0
 20 22  1  0  0  0  0
 20 23  1  0  0  0  0
 24 25  2  0  0  0  0
 24 44  1  0  0  0  0
 25 45  1  0  0  0  0
 26 27  2  0  0  0  0
 26 31  1  0  0  0  0
 27 28  1  0  0  0  0
 27 46  1  0  0  0  0
 28 29  2  0  0  0  0
 28 47  1  0  0  0  0
 29 30  1  0  0  0  0
 29 48  1  0  0  0  0
 30 31  2  0  0  0  0
 30 49  1  0  0  0  0
 31 50  1  0  0  0  0
M  END
$$$$
