
 OpenBabel01122422403D

 46 49  0  0  0  0  0  0  0  0999 V2000
   -2.7041   -0.3937    0.1663 N   0  0  0  0  0  0  0  0  0  0  0  0
   -1.5612   -0.1884    0.1463 C   0  0  0  0  0  0  0  0  0  0  0  0
   -0.1414    0.0261    0.0888 C   0  0  0  0  0  0  0  0  0  0  0  0
    0.6617   -1.1323    0.0921 C   0  0  0  0  0  0  0  0  0  0  0  0
    2.0497   -1.0400    0.0911 C   0  0  0  0  0  0  0  0  0  0  0  0
    2.6481    0.2111    0.0704 C   0  0  0  0  0  0  0  0  0  0  0  0
    1.8577    1.3664    0.0401 C   0  0  0  0  0  0  0  0  0  0  0  0
    0.4433    1.3165    0.0556 C   0  0  0  0  0  0  0  0  0  0  0  0
   -0.3321    2.5935    0.0519 C   0  0  0  0  0  0  0  0  0  0  0  0
   -1.5244    2.7520   -0.6756 C   0  0  0  0  0  0  0  0  0  0  0  0
   -2.2545    3.9477   -0.6520 C   0  0  0  0  0  0  0  0  0  0  0  0
   -1.7836    5.0573    0.0505 C   0  0  0  0  0  0  0  0  0  0  0  0
   -2.5489    6.3517    0.0275 C   0  0  0  0  0  0  0  0  0  0  0  0
   -3.4702    6.4546    1.1338 N   0  0  0  0  0  0  0  0  0  0  0  0
   -4.2294    7.5956    1.2983 C   0  0  0  0  0  0  0  0  0  0  0  0
   -4.2016    8.5406    0.5179 O   0  0  0  0  0  0  0  0  0  0  0  0
   -5.1092    7.6449    2.4998 C   0  0  0  0  0  0  0  0  0  0  0  0
   -4.7907    6.9321    3.6617 C   0  0  0  0  0  0  0  0  0  0  0  0
   -5.5875    7.0679    4.7962 C   0  0  0  0  0  0  0  0  0  0  0  0
   -6.6912    7.9250    4.7828 C   0  0  0  0  0  0  0  0  0  0  0  0
   -7.0277    8.6511    3.6335 C   0  0  0  0  0  0  0  0  0  0  0  0
   -8.1306    9.5260    3.6278 N   0  0  0  0  0  0  0  0  0  0  0  0
   -8.5465   10.1369    2.4701 N   0  0  0  0  0  0  0  0  0  0  0  0
   -9.5565   10.8666    2.7198 N   0  0  0  0  0  0  0  0  0  0  0  0
   -9.8441   10.7758    4.0397 N   0  0  0  0  0  0  0  0  0  0  0  0
   -8.9557    9.9302    4.6706 C   0  0  0  0  0  0  0  0  0  0  0  0
   -8.9483    9.6639    5.8585 O   0  0  0  0  0  0  0  0  0  0  0  0
   -6.2281    8.4945    2.4878 C   0  0  0  0  0  0  0  0  0  0  0  0
   -0.5934    4.9309    0.7715 C   0  0  0  0  0  0  0  0  0  0  0  0
    0.1128    3.7184    0.7755 C   0  0  0  0  0  0  0  0  0  0  0  0
    0.1994   -2.1190    0.1057 H   0  0  0  0  0  0  0  0  0  0  0  0
    2.6585   -1.9407    0.1089 H   0  0  0  0  0  0  0  0  0  0  0  0
    3.7326    0.2948    0.0743 H   0  0  0  0  0  0  0  0  0  0  0  0
    2.3743    2.3246   -0.0016 H   0  0  0  0  0  0  0  0  0  0  0  0
   -1.9180    1.9488   -1.2945 H   0  0  0  0  0  0  0  0  0  0  0  0
   -3.1891    4.0053   -1.2075 H   0  0  0  0  0  0  0  0  0  0  0  0
   -3.1125    6.4538   -0.9078 H   0  0  0  0  0  0  0  0  0  0  0  0
   -1.8599    7.2050    0.0723 H   0  0  0  0  0  0  0  0  0  0  0  0
   -3.7004    5.6115    1.6411 H   0  0  0  0  0  0  0  0  0  0  0  0
   -3.9107    6.3007    3.7153 H   0  0  0  0  0  0  0  0  0  0  0  0
   -5.3407    6.5234    5.7049 H   0  0  0  0  0  0  0  0  0  0  0  0
   -7.2773    8.0077    5.6951 H   0  0  0  0  0  0  0  0  0  0  0  0
  -10.5983   11.2864    4.4725 H   0  0  0  0  0  0  0  0  0  0  0  0
   -6.4473    9.0550    1.5801 H   0  0  0  0  0  0  0  0  0  0  0  0
   -0.1987    5.7772    1.3311 H   0  0  0  0  0  0  0  0  0  0  0  0
    1.0296    3.6710    1.3609 H   0  0  0  0  0  0  0  0  0  0  0  0
  1  2  3  0  0  0  0
  2  3  1  0  0  0  0
  3  4  2  0  0  0  0
  3  8  1  0  0  0  0
  4  5  1  0  0  0  0
  4 31  1  0  0  0  0
  5  6  2  0  0  0  0
  5 32  1  0  0  0  0
  6  7  1  0  0  0  0
  6 33  1  0  0  0  0
  7  8  2  0  0  0  0
  7 34  1  0  0  0  0
  8  9  1  0  0  0  0
  9 10  2  0  0  0  0
  9 30  1  0  0  0  0
 10 11  1  0  0  0  0
 10 35  1  0  0  0  0
 11 12  2  0  0  0  0
 11 36  1  0  0  0  0
 12 13  1  0  0  0  0
 12 29  1  0  0  0  0
 13 14  1  0  0  0  0
 13 37  1  0  0  0  0
 13 38  1  0  0  0  0
 14 15  1  0  0  0  0
 14 39  1  0  0  0  0
 15 16  2  0  0  0  0
 15 17  1  0  0  0  0
 17 18  2  0  0  0  0
 17 28  1  0  0  0  0
 18 19  1  0  0  0  0
 18 40  1  0  0  0  0
 19 20  2  0  0  0  0
 19 41  1  0  0  0  0
 20 21  1  0  0  0  0
 20 42  1  0  0  0  0
 21 22  1  0  0  0  0
 21 28  2  0  0  0  0
 22 23  1  0  0  0  0
 22 26  1  0  0  0  0
 23 24  2  0  0  0  0
 24 25  1  0  0  0  0
 25 26  1  0  0  0  0
 25 43  1  0  0  0  0
 26 27  2  0  0  0  0
 28 44  1  0  0  0  0
 29 30  2  0  0  0  0
 29 45  1  0  0  0  0
 30 46  1  0  0  0  0
M  END
$$$$
