
 OpenBabel01122422403D

 46 49  0  0  0  0  0  0  0  0999 V2000
    1.3625   -0.4015   -0.4912 O   0  0  0  0  0  0  0  0  0  0  0  0
    2.5375   -0.2226   -0.1754 C   0  0  0  0  0  0  0  0  0  0  0  0
    3.2997    0.7686   -0.9878 C   0  0  0  0  0  0  0  0  0  0  0  0
    3.0134    0.8703   -2.3359 C   0  0  0  0  0  0  0  0  0  0  0  0
    3.7109    1.6789   -3.1549 N   0  0  0  0  0  0  0  0  0  0  0  0
    4.7404    2.4307   -2.6453 N   0  0  0  0  0  0  0  0  0  0  0  0
    5.0303    2.4063   -1.3240 C   0  0  0  0  0  0  0  0  0  0  0  0
    6.1770    3.2216   -0.8769 C   0  0  0  0  0  0  0  0  0  0  0  0
    6.2621    3.7323    0.4327 C   0  0  0  0  0  0  0  0  0  0  0  0
    7.3679    4.4759    0.8554 C   0  0  0  0  0  0  0  0  0  0  0  0
    8.4151    4.7319   -0.0229 C   0  0  0  0  0  0  0  0  0  0  0  0
    8.3552    4.2497   -1.3259 C   0  0  0  0  0  0  0  0  0  0  0  0
    7.2470    3.5040   -1.7472 C   0  0  0  0  0  0  0  0  0  0  0  0
    4.2919    1.5991   -0.4665 C   0  0  0  0  0  0  0  0  0  0  0  0
    3.1467   -0.8829    0.9030 N   0  0  0  0  0  0  0  0  0  0  0  0
    2.3425   -1.7901    1.7330 C   0  0  0  0  0  0  0  0  0  0  0  0
    2.2849   -1.4429    3.2041 C   0  0  0  0  0  0  0  0  0  0  0  0
    1.7172   -0.2362    3.6347 C   0  0  0  0  0  0  0  0  0  0  0  0
    1.6872    0.0863    4.9940 C   0  0  0  0  0  0  0  0  0  0  0  0
    2.2109   -0.7980    5.9364 C   0  0  0  0  0  0  0  0  0  0  0  0
    2.7433   -2.0166    5.5236 C   0  0  0  0  0  0  0  0  0  0  0  0
    2.7736   -2.3409    4.1659 C   0  0  0  0  0  0  0  0  0  0  0  0
    4.5554   -1.0001    1.0410 C   0  0  0  0  0  0  0  0  0  0  0  0
    5.0991   -0.5606    2.1884 N   0  0  0  0  0  0  0  0  0  0  0  0
    6.4352   -0.4211    2.2113 C   0  0  0  0  0  0  0  0  0  0  0  0
    7.2647   -0.6928    1.1971 N   0  0  0  0  0  0  0  0  0  0  0  0
    6.6685   -1.1787    0.1090 C   0  0  0  0  0  0  0  0  0  0  0  0
    7.5004   -1.4038   -0.9371 O   0  0  0  0  0  0  0  0  0  0  0  0
    5.3209   -1.3785   -0.0403 C   0  0  0  0  0  0  0  0  0  0  0  0
    2.2285    0.2945   -2.8111 H   0  0  0  0  0  0  0  0  0  0  0  0
    5.4589    3.5711    1.1468 H   0  0  0  0  0  0  0  0  0  0  0  0
    7.4055    4.8590    1.8733 H   0  0  0  0  0  0  0  0  0  0  0  0
    9.2734    5.3104    0.3063 H   0  0  0  0  0  0  0  0  0  0  0  0
    9.1677    4.4503   -2.0195 H   0  0  0  0  0  0  0  0  0  0  0  0
    7.2310    3.1341   -2.7718 H   0  0  0  0  0  0  0  0  0  0  0  0
    4.5175    1.5833    0.5918 H   0  0  0  0  0  0  0  0  0  0  0  0
    2.7440   -2.8030    1.5943 H   0  0  0  0  0  0  0  0  0  0  0  0
    1.3105   -1.8351    1.3644 H   0  0  0  0  0  0  0  0  0  0  0  0
    1.2999    0.4611    2.9111 H   0  0  0  0  0  0  0  0  0  0  0  0
    1.2570    1.0304    5.3177 H   0  0  0  0  0  0  0  0  0  0  0  0
    2.1992   -0.5386    6.9905 H   0  0  0  0  0  0  0  0  0  0  0  0
    3.1396   -2.7131    6.2582 H   0  0  0  0  0  0  0  0  0  0  0  0
    3.1917   -3.2992    3.8641 H   0  0  0  0  0  0  0  0  0  0  0  0
    6.8710   -0.0234    3.1182 H   0  0  0  0  0  0  0  0  0  0  0  0
    8.3420   -1.0565   -0.5826 H   0  0  0  0  0  0  0  0  0  0  0  0
    4.9082   -1.7454   -0.9673 H   0  0  0  0  0  0  0  0  0  0  0  0
  1  2  2  0  0  0  0
  2  3  1  0  0  0  0
  2 15  1  0  0  0  0
  3  4  2  0  0  0  0
  3 14  1  0  0  0  0
  4  5  1  0  0  0  0
  4 30  1  0  0  0  0
  5  6  2  0  0  0  0
  6  7  1  0  0  0  0
  7  8  1  0  0  0  0
  7 14  2  0  0  0  0
  8  9  2  0  0  0  0
  8 13  1  0  0  0  0
  9 10  1  0  0  0  0
  9 31  1  0  0  0  0
 10 11  2  0  0  0  0
 10 32  1  0  0  0  0
 11 12  1  0  0  0  0
 11 33  1  0  0  0  0
 12 13  2  0  0  0  0
 12 34  1  0  0  0  0
 13 35  1  0  0  0  0
 14 36  1  0  0  0  0
 15 16  1  0  0  0  0
 15 23  1  0  0  0  0
 16 17  1  0  0  0  0
 16 37  1  0  0  0  0
 16 38  1  0  0  0  0
 17 18  2  0  0  0  0
 17 22  1  0  0  0  0
 18 19  1  0  0  0  0
 18 39  1  0  0  0  0
 19 20  2  0  0  0  0
 19 40  1  0  0  0  0
 20 21  1  0  0  0  0
 20 41  1  0  0  0  0
 21 22  2  0  0  0  0
 21 42  1  0  0  0  0
 22 43  1  0  0  0  0
 23 24  2  0  0  0  0
 23 29  1  0  0  0  0
 24 25  1  0  0  0  0
 25 26  2  0  0  0  0
 25 44  1  0  0  0  0
 26 27  1  0  0  0  0
 27 28  1  0  0  0  0
 27 29  2  0  0  0  0
 28 45  1  0  0  0  0
 29 46  1  0  0  0  0
M  END
$$$$
