
 OpenBabel01122422403D

 44 47  0  0  0  0  0  0  0  0999 V2000
    1.4538   -0.6210    0.9112 N   0  0  0  0  0  0  0  0  0  0  0  0
    2.5298   -0.4351    0.5168 C   0  0  0  0  0  0  0  0  0  0  0  0
    3.8545   -0.1947    0.0480 C   0  0  0  0  0  0  0  0  0  0  0  0
    4.7002    0.8093    0.4528 C   0  0  0  0  0  0  0  0  0  0  0  0
    5.8873    0.6457   -0.2371 N   0  0  0  0  0  0  0  0  0  0  0  0
    7.0785    1.4091   -0.0966 C   0  0  0  0  0  0  0  0  0  0  0  0
    7.1660    2.3860    0.8945 C   0  0  0  0  0  0  0  0  0  0  0  0
    8.3333    3.1345    1.0477 C   0  0  0  0  0  0  0  0  0  0  0  0
    9.4463    2.9388    0.2279 C   0  0  0  0  0  0  0  0  0  0  0  0
   10.6338    3.7053    0.3546 N   0  0  0  0  0  0  0  0  0  0  0  0
   10.8793    4.6450    1.3444 C   0  0  0  0  0  0  0  0  0  0  0  0
   10.1456    4.8712    2.3012 O   0  0  0  0  0  0  0  0  0  0  0  0
   12.0507    5.3608    1.1188 N   0  0  0  0  0  0  0  0  0  0  0  0
   12.4271    6.3882    2.0237 C   0  0  0  0  0  0  0  0  0  0  0  0
   12.7983    7.6310    1.5215 C   0  0  0  0  0  0  0  0  0  0  0  0
   13.0427    8.6815    2.4049 C   0  0  0  0  0  0  0  0  0  0  0  0
   12.9438    8.4855    3.7887 C   0  0  0  0  0  0  0  0  0  0  0  0
   12.6076    7.2331    4.3316 C   0  0  0  0  0  0  0  0  0  0  0  0
   12.4671    7.0244    5.7893 C   0  0  0  0  0  0  0  0  0  0  0  0
   11.6036    6.0920    6.3508 C   0  0  0  0  0  0  0  0  0  0  0  0
   11.4433    5.8751    7.6779 N   0  0  0  0  0  0  0  0  0  0  0  0
   12.1823    6.6458    8.4839 C   0  0  0  0  0  0  0  0  0  0  0  0
   13.0487    7.5862    8.0868 N   0  0  0  0  0  0  0  0  0  0  0  0
   13.1672    7.7450    6.7471 C   0  0  0  0  0  0  0  0  0  0  0  0
   12.3712    6.1908    3.4142 C   0  0  0  0  0  0  0  0  0  0  0  0
    9.3631    1.9569   -0.7681 C   0  0  0  0  0  0  0  0  0  0  0  0
    8.1890    1.1925   -0.9288 C   0  0  0  0  0  0  0  0  0  0  0  0
    5.8069   -0.3925   -1.1129 N   0  0  0  0  0  0  0  0  0  0  0  0
    4.5862   -0.9048   -0.9119 C   0  0  0  0  0  0  0  0  0  0  0  0
    4.5534    1.6060    1.1665 H   0  0  0  0  0  0  0  0  0  0  0  0
    6.3589    2.5961    1.5870 H   0  0  0  0  0  0  0  0  0  0  0  0
    8.3208    3.8726    1.8420 H   0  0  0  0  0  0  0  0  0  0  0  0
   11.4028    3.4708   -0.2561 H   0  0  0  0  0  0  0  0  0  0  0  0
   12.2584    5.5252    0.1446 H   0  0  0  0  0  0  0  0  0  0  0  0
   12.8268    7.8197    0.4528 H   0  0  0  0  0  0  0  0  0  0  0  0
   13.2761    9.6708    2.0180 H   0  0  0  0  0  0  0  0  0  0  0  0
   13.1068    9.3467    4.4341 H   0  0  0  0  0  0  0  0  0  0  0  0
   10.9669    5.4641    5.7311 H   0  0  0  0  0  0  0  0  0  0  0  0
   12.0681    6.4959    9.5517 H   0  0  0  0  0  0  0  0  0  0  0  0
   13.8883    8.5082    6.4674 H   0  0  0  0  0  0  0  0  0  0  0  0
   12.1217    5.1963    3.7806 H   0  0  0  0  0  0  0  0  0  0  0  0
   10.2006    1.7673   -1.4355 H   0  0  0  0  0  0  0  0  0  0  0  0
    8.1559    0.4367   -1.7130 H   0  0  0  0  0  0  0  0  0  0  0  0
    4.2824   -1.7763   -1.4793 H   0  0  0  0  0  0  0  0  0  0  0  0
  1  2  3  0  0  0  0
  2  3  1  0  0  0  0
  3  4  2  0  0  0  0
  3 29  1  0  0  0  0
  4  5  1  0  0  0  0
  4 30  1  0  0  0  0
  5  6  1  0  0  0  0
  5 28  1  0  0  0  0
  6  7  2  0  0  0  0
  6 27  1  0  0  0  0
  7  8  1  0  0  0  0
  7 31  1  0  0  0  0
  8  9  2  0  0  0  0
  8 32  1  0  0  0  0
  9 10  1  0  0  0  0
  9 26  1  0  0  0  0
 10 11  1  0  0  0  0
 10 33  1  0  0  0  0
 11 12  2  0  0  0  0
 11 13  1  0  0  0  0
 13 14  1  0  0  0  0
 13 34  1  0  0  0  0
 14 15  2  0  0  0  0
 14 25  1  0  0  0  0
 15 16  1  0  0  0  0
 15 35  1  0  0  0  0
 16 17  2  0  0  0  0
 16 36  1  0  0  0  0
 17 18  1  0  0  0  0
 17 37  1  0  0  0  0
 18 19  1  0  0  0  0
 18 25  2  0  0  0  0
 19 20  2  0  0  0  0
 19 24  1  0  0  0  0
 20 21  1  0  0  0  0
 20 38  1  0  0  0  0
 21 22  2  0  0  0  0
 22 23  1  0  0  0  0
 22 39  1  0  0  0  0
 23 24  2  0  0  0  0
 24 40  1  0  0  0  0
 25 41  1  0  0  0  0
 26 27  2  0  0  0  0
 26 42  1  0  0  0  0
 27 43  1  0  0  0  0
 28 29  2  0  0  0  0
 29 44  1  0  0  0  0
M  END
$$$$
