
 OpenBabel01122422403D

 46 49  0  0  0  0  0  0  0  0999 V2000
   -1.7045   -1.5417    4.3474 C   0  0  0  0  0  0  0  0  0  0  0  0
   -1.5935   -0.5766    3.2012 C   0  0  0  0  0  0  0  0  0  0  0  0
   -1.2672    0.6885    3.5720 N   0  0  0  0  0  0  0  0  0  0  0  0
   -1.1432    1.6116    2.5932 C   0  0  0  0  0  0  0  0  0  0  0  0
   -0.8432    3.0346    3.0092 C   0  0  0  0  0  0  0  0  0  0  0  0
   -0.1179    3.0955    4.2419 O   0  0  0  0  0  0  0  0  0  0  0  0
   -1.3014    1.3597    1.2883 N   0  0  0  0  0  0  0  0  0  0  0  0
   -1.6043    0.0859    0.9588 C   0  0  0  0  0  0  0  0  0  0  0  0
   -1.7810   -0.9456    1.8675 C   0  0  0  0  0  0  0  0  0  0  0  0
   -2.1742   -2.2586    1.4911 N   0  0  0  0  0  0  0  0  0  0  0  0
   -2.3244   -2.7109    0.1833 C   0  0  0  0  0  0  0  0  0  0  0  0
   -2.0020   -2.1069   -0.8298 O   0  0  0  0  0  0  0  0  0  0  0  0
   -2.9318   -4.0618    0.0428 C   0  0  0  0  0  0  0  0  0  0  0  0
   -2.4572   -5.0598    0.8894 C   0  0  0  0  0  0  0  0  0  0  0  0
   -3.0482   -6.3094    0.8592 C   0  0  0  0  0  0  0  0  0  0  0  0
   -2.5869   -7.4035    1.7319 C   0  0  0  0  0  0  0  0  0  0  0  0
   -2.0239   -7.1465    2.9991 C   0  0  0  0  0  0  0  0  0  0  0  0
   -1.4997   -8.1715    3.7887 C   0  0  0  0  0  0  0  0  0  0  0  0
   -1.5474   -9.4864    3.3366 C   0  0  0  0  0  0  0  0  0  0  0  0
   -2.1323   -9.7736    2.1055 C   0  0  0  0  0  0  0  0  0  0  0  0
   -2.6507   -8.7437    1.3141 C   0  0  0  0  0  0  0  0  0  0  0  0
   -4.0629   -6.5847    0.0022 N   0  0  0  0  0  0  0  0  0  0  0  0
   -4.4861   -5.6455   -0.8632 C   0  0  0  0  0  0  0  0  0  0  0  0
   -5.5089   -5.9820   -1.7401 C   0  0  0  0  0  0  0  0  0  0  0  0
   -5.9759   -5.0781   -2.6872 C   0  0  0  0  0  0  0  0  0  0  0  0
   -6.9613   -5.4421   -3.5189 F   0  0  0  0  0  0  0  0  0  0  0  0
   -5.4403   -3.8088   -2.7793 C   0  0  0  0  0  0  0  0  0  0  0  0
   -4.4352   -3.4365   -1.8887 C   0  0  0  0  0  0  0  0  0  0  0  0
   -3.9419   -4.3454   -0.9094 C   0  0  0  0  0  0  0  0  0  0  0  0
   -1.6512   -1.0070    5.3042 H   0  0  0  0  0  0  0  0  0  0  0  0
   -0.8796   -2.2602    4.3247 H   0  0  0  0  0  0  0  0  0  0  0  0
   -2.6598   -2.0734    4.3292 H   0  0  0  0  0  0  0  0  0  0  0  0
   -1.7892    3.5674    3.1449 H   0  0  0  0  0  0  0  0  0  0  0  0
   -0.2576    3.5425    2.2371 H   0  0  0  0  0  0  0  0  0  0  0  0
   -0.1980    2.2013    4.6293 H   0  0  0  0  0  0  0  0  0  0  0  0
   -1.7267   -0.0480   -0.1098 H   0  0  0  0  0  0  0  0  0  0  0  0
   -2.4140   -2.8872    2.2460 H   0  0  0  0  0  0  0  0  0  0  0  0
   -1.6046   -4.8732    1.5333 H   0  0  0  0  0  0  0  0  0  0  0  0
   -1.9827   -6.1352    3.3957 H   0  0  0  0  0  0  0  0  0  0  0  0
   -1.0527   -7.9411    4.7519 H   0  0  0  0  0  0  0  0  0  0  0  0
   -1.1293  -10.2840    3.9428 H   0  0  0  0  0  0  0  0  0  0  0  0
   -2.1787  -10.8005    1.7540 H   0  0  0  0  0  0  0  0  0  0  0  0
   -3.0915   -8.9920    0.3495 H   0  0  0  0  0  0  0  0  0  0  0  0
   -5.9516   -6.9715   -1.6970 H   0  0  0  0  0  0  0  0  0  0  0  0
   -5.8018   -3.1183   -3.5350 H   0  0  0  0  0  0  0  0  0  0  0  0
   -4.0236   -2.4330   -1.9841 H   0  0  0  0  0  0  0  0  0  0  0  0
  1  2  1  0  0  0  0
  1 30  1  0  0  0  0
  1 31  1  0  0  0  0
  1 32  1  0  0  0  0
  2  3  2  0  0  0  0
  2  9  1  0  0  0  0
  3  4  1  0  0  0  0
  4  5  1  0  0  0  0
  4  7  2  0  0  0  0
  5  6  1  0  0  0  0
  5 33  1  0  0  0  0
  5 34  1  0  0  0  0
  6 35  1  0  0  0  0
  7  8  1  0  0  0  0
  8  9  2  0  0  0  0
  8 36  1  0  0  0  0
  9 10  1  0  0  0  0
 10 11  1  0  0  0  0
 10 37  1  0  0  0  0
 11 12  2  0  0  0  0
 11 13  1  0  0  0  0
 13 14  2  0  0  0  0
 13 29  1  0  0  0  0
 14 15  1  0  0  0  0
 14 38  1  0  0  0  0
 15 16  1  0  0  0  0
 15 22  2  0  0  0  0
 16 17  2  0  0  0  0
 16 21  1  0  0  0  0
 17 18  1  0  0  0  0
 17 39  1  0  0  0  0
 18 19  2  0  0  0  0
 18 40  1  0  0  0  0
 19 20  1  0  0  0  0
 19 41  1  0  0  0  0
 20 21  2  0  0  0  0
 20 42  1  0  0  0  0
 21 43  1  0  0  0  0
 22 23  1  0  0  0  0
 23 24  2  0  0  0  0
 23 29  1  0  0  0  0
 24 25  1  0  0  0  0
 24 44  1  0  0  0  0
 25 26  1  0  0  0  0
 25 27  2  0  0  0  0
 27 28  1  0  0  0  0
 27 45  1  0  0  0  0
 28 29  2  0  0  0  0
 28 46  1  0  0  0  0
M  END
$$$$
