
 OpenBabel01122422403D

 44 46  0  0  0  0  0  0  0  0999 V2000
    3.9651    2.1194   -2.6295 N   0  0  0  0  0  0  0  0  0  0  0  0
    3.5702    1.1116   -2.2031 C   0  0  0  0  0  0  0  0  0  0  0  0
    3.0730   -0.1258   -1.6842 C   0  0  0  0  0  0  0  0  0  0  0  0
    1.8703   -0.1498   -0.9674 C   0  0  0  0  0  0  0  0  0  0  0  0
    1.3870   -1.3526   -0.4526 C   0  0  0  0  0  0  0  0  0  0  0  0
    2.1089   -2.5234   -0.6523 C   0  0  0  0  0  0  0  0  0  0  0  0
    1.6322   -3.6719   -0.1547 F   0  0  0  0  0  0  0  0  0  0  0  0
    3.3103   -2.5249   -1.3664 C   0  0  0  0  0  0  0  0  0  0  0  0
    4.0772   -3.8041   -1.5303 C   0  0  0  0  0  0  0  0  0  0  0  0
    5.1826   -3.9907   -0.1244 S   0  0  0  0  0  0  0  0  0  0  0  0
    6.1791   -2.9393   -0.1507 O   0  0  0  0  0  0  0  0  0  0  0  0
    4.4410   -4.2864    1.0791 O   0  0  0  0  0  0  0  0  0  0  0  0
    6.0315   -5.3942   -0.5084 N   0  0  0  0  0  0  0  0  0  0  0  0
    5.2434   -6.6504   -0.5112 C   0  0  0  0  0  0  0  0  0  0  0  0
    6.0201   -7.8807   -0.9401 C   0  0  0  0  0  0  0  0  0  0  0  0
    7.3580   -8.0360   -0.6011 C   0  0  0  0  0  0  0  0  0  0  0  0
    8.0009   -9.2416   -0.8816 C   0  0  0  0  0  0  0  0  0  0  0  0
    9.2966   -9.5248   -0.4931 O   0  0  0  0  0  0  0  0  0  0  0  0
    9.7746   -8.9389    0.6625 C   0  0  0  0  0  0  0  0  0  0  0  0
    8.9800   -8.7407    1.8027 C   0  0  0  0  0  0  0  0  0  0  0  0
    9.4699   -8.0046    2.8803 C   0  0  0  0  0  0  0  0  0  0  0  0
   10.7825   -7.5512    2.8518 C   0  0  0  0  0  0  0  0  0  0  0  0
   11.2465   -6.8305    3.8808 F   0  0  0  0  0  0  0  0  0  0  0  0
   11.6044   -7.8397    1.7667 C   0  0  0  0  0  0  0  0  0  0  0  0
   12.8799   -7.4283    1.7648 F   0  0  0  0  0  0  0  0  0  0  0  0
   11.1092   -8.5324    0.6645 C   0  0  0  0  0  0  0  0  0  0  0  0
    7.3263  -10.2207   -1.5949 C   0  0  0  0  0  0  0  0  0  0  0  0
    6.0034   -9.9825   -1.9213 C   0  0  0  0  0  0  0  0  0  0  0  0
    5.3339   -8.8541   -1.5885 N   0  0  0  0  0  0  0  0  0  0  0  0
    3.7897   -1.3132   -1.8868 C   0  0  0  0  0  0  0  0  0  0  0  0
    1.3071    0.7671   -0.8013 H   0  0  0  0  0  0  0  0  0  0  0  0
    0.4571   -1.3856    0.1068 H   0  0  0  0  0  0  0  0  0  0  0  0
    4.6799   -3.8009   -2.4426 H   0  0  0  0  0  0  0  0  0  0  0  0
    3.3955   -4.6582   -1.5514 H   0  0  0  0  0  0  0  0  0  0  0  0
    6.8509   -5.4218    0.0978 H   0  0  0  0  0  0  0  0  0  0  0  0
    4.4093   -6.5441   -1.2120 H   0  0  0  0  0  0  0  0  0  0  0  0
    4.8399   -6.8390    0.4903 H   0  0  0  0  0  0  0  0  0  0  0  0
    7.8856   -7.2412   -0.0895 H   0  0  0  0  0  0  0  0  0  0  0  0
    7.9572   -9.1081    1.8392 H   0  0  0  0  0  0  0  0  0  0  0  0
    8.8331   -7.7749    3.7288 H   0  0  0  0  0  0  0  0  0  0  0  0
   11.7574   -8.7243   -0.1843 H   0  0  0  0  0  0  0  0  0  0  0  0
    7.8093  -11.1491   -1.8753 H   0  0  0  0  0  0  0  0  0  0  0  0
    5.4202  -10.7200   -2.4663 H   0  0  0  0  0  0  0  0  0  0  0  0
    4.7308   -1.2893   -2.4369 H   0  0  0  0  0  0  0  0  0  0  0  0
  1  2  3  0  0  0  0
  2  3  1  0  0  0  0
  3  4  2  0  0  0  0
  3 30  1  0  0  0  0
  4  5  1  0  0  0  0
  4 31  1  0  0  0  0
  5  6  2  0  0  0  0
  5 32  1  0  0  0  0
  6  7  1  0  0  0  0
  6  8  1  0  0  0  0
  8  9  1  0  0  0  0
  8 30  2  0  0  0  0
  9 10  1  0  0  0  0
  9 33  1  0  0  0  0
  9 34  1  0  0  0  0
 10 11  2  0  0  0  0
 10 12  2  0  0  0  0
 10 13  1  0  0  0  0
 13 14  1  0  0  0  0
 13 35  1  0  0  0  0
 14 15  1  0  0  0  0
 14 36  1  0  0  0  0
 14 37  1  0  0  0  0
 15 16  2  0  0  0  0
 15 29  1  0  0  0  0
 16 17  1  0  0  0  0
 16 38  1  0  0  0  0
 17 18  1  0  0  0  0
 17 27  2  0  0  0  0
 18 19  1  0  0  0  0
 19 20  2  0  0  0  0
 19 26  1  0  0  0  0
 20 21  1  0  0  0  0
 20 39  1  0  0  0  0
 21 22  2  0  0  0  0
 21 40  1  0  0  0  0
 22 23  1  0  0  0  0
 22 24  1  0  0  0  0
 24 25  1  0  0  0  0
 24 26  2  0  0  0  0
 26 41  1  0  0  0  0
 27 28  1  0  0  0  0
 27 42  1  0  0  0  0
 28 29  2  0  0  0  0
 28 43  1  0  0  0  0
 30 44  1  0  0  0  0
M  END
$$$$
