
 OpenBabel01122422403D

 51 54  0  0  1  0  0  0  0  0999 V2000
    4.2354   -0.0636   -0.3309 N   0  0  0  0  0  0  0  0  0  0  0  0
    3.5937    1.2686   -0.0900 C   0  0  1  0  0  0  0  0  0  0  0  0
    2.1096    1.3282   -0.4737 C   0  0  0  0  0  0  0  0  0  0  0  0
    1.8521    1.1402   -1.9461 C   0  0  0  0  0  0  0  0  0  0  0  0
    1.6023   -0.1402   -2.4552 C   0  0  0  0  0  0  0  0  0  0  0  0
    1.2808   -0.3192   -3.7992 C   0  0  0  0  0  0  0  0  0  0  0  0
    1.1869    0.7731   -4.6636 C   0  0  0  0  0  0  0  0  0  0  0  0
    0.8114    0.6662   -6.0110 N   0  0  0  0  0  0  0  0  0  0  0  0
    0.4363   -0.4941   -6.6738 C   0  0  0  0  0  0  0  0  0  0  0  0
    0.2460   -1.6027   -6.1508 O   0  0  0  0  0  0  0  0  0  0  0  0
    0.2700   -0.4112   -8.1457 C   0  0  0  0  0  0  0  0  0  0  0  0
    0.8870    0.6041   -8.8802 C   0  0  0  0  0  0  0  0  0  0  0  0
    0.9040    0.5354  -10.2623 C   0  0  0  0  0  0  0  0  0  0  0  0
    0.2916   -0.5372  -10.9100 C   0  0  0  0  0  0  0  0  0  0  0  0
    0.5173   -0.6784  -12.2871 N   0  0  0  0  0  0  0  0  0  0  0  0
    1.7838   -0.7142  -12.8357 C   0  0  0  0  0  0  0  0  0  0  0  0
    1.6371   -0.6926  -14.2007 C   0  0  0  0  0  0  0  0  0  0  0  0
    0.4021   -0.0293  -14.3938 C   0  0  0  0  0  0  0  0  0  0  0  0
   -0.1267    0.8291  -15.3663 C   0  0  0  0  0  0  0  0  0  0  0  0
   -1.4639    1.2214  -15.2541 C   0  0  0  0  0  0  0  0  0  0  0  0
   -2.2924    0.6518  -14.2867 C   0  0  0  0  0  0  0  0  0  0  0  0
   -1.7729   -0.1680  -13.2810 C   0  0  0  0  0  0  0  0  0  0  0  0
   -0.3870   -0.3601  -13.2881 C   0  0  0  0  0  0  0  0  0  0  0  0
   -0.3927   -1.5306  -10.2117 C   0  0  0  0  0  0  0  0  0  0  0  0
   -0.3891   -1.4643   -8.8185 C   0  0  0  0  0  0  0  0  0  0  0  0
    1.4896    2.0510   -4.1674 C   0  0  0  0  0  0  0  0  0  0  0  0
    1.8209    2.2337   -2.8221 C   0  0  0  0  0  0  0  0  0  0  0  0
    3.7583    1.6013    1.4018 C   0  0  0  0  0  0  0  0  0  0  0  0
    3.0608    2.3665    2.0455 O   0  0  0  0  0  0  0  0  0  0  0  0
    4.8225    0.9362    1.9310 O   0  0  0  0  0  0  0  0  0  0  0  0
    4.1773   -0.2509   -1.3394 H   0  0  0  0  0  0  0  0  0  0  0  0
    3.6355   -0.7855    0.0831 H   0  0  0  0  0  0  0  0  0  0  0  0
    4.1665    2.0184   -0.6472 H   0  0  0  0  0  0  0  0  0  0  0  0
    1.6834    2.2957   -0.1707 H   0  0  0  0  0  0  0  0  0  0  0  0
    1.5367    0.5806    0.0939 H   0  0  0  0  0  0  0  0  0  0  0  0
    1.6049   -1.0069   -1.8009 H   0  0  0  0  0  0  0  0  0  0  0  0
    1.0804   -1.3331   -4.1324 H   0  0  0  0  0  0  0  0  0  0  0  0
    0.7664    1.5319   -6.5275 H   0  0  0  0  0  0  0  0  0  0  0  0
    1.4320    1.4204   -8.4138 H   0  0  0  0  0  0  0  0  0  0  0  0
    1.3976    1.3224  -10.8390 H   0  0  0  0  0  0  0  0  0  0  0  0
    2.6613   -0.7927  -12.2079 H   0  0  0  0  0  0  0  0  0  0  0  0
    2.4162   -0.8857  -14.9221 H   0  0  0  0  0  0  0  0  0  0  0  0
    0.5188    1.2642  -16.1244 H   0  0  0  0  0  0  0  0  0  0  0  0
   -1.8614    1.9718  -15.9325 H   0  0  0  0  0  0  0  0  0  0  0  0
   -3.3507    0.9012  -14.2739 H   0  0  0  0  0  0  0  0  0  0  0  0
   -2.4034   -0.5583  -12.4899 H   0  0  0  0  0  0  0  0  0  0  0  0
   -0.8413   -2.3802  -10.7200 H   0  0  0  0  0  0  0  0  0  0  0  0
   -0.8509   -2.2703   -8.2461 H   0  0  0  0  0  0  0  0  0  0  0  0
    1.4486    2.9211   -4.8176 H   0  0  0  0  0  0  0  0  0  0  0  0
    2.0253    3.2383   -2.4572 H   0  0  0  0  0  0  0  0  0  0  0  0
    5.1773    0.3676    1.2030 H   0  0  0  0  0  0  0  0  0  0  0  0
  1  2  1  0  0  0  0
  1 31  1  0  0  0  0
  1 32  1  0  0  0  0
  2  3  1  0  0  0  0
  2 28  1  0  0  0  0
  2 33  1  6  0  0  0
  3  4  1  0  0  0  0
  3 34  1  0  0  0  0
  3 35  1  0  0  0  0
  4  5  2  0  0  0  0
  4 27  1  0  0  0  0
  5  6  1  0  0  0  0
  5 36  1  0  0  0  0
  6  7  2  0  0  0  0
  6 37  1  0  0  0  0
  7  8  1  0  0  0  0
  7 26  1  0  0  0  0
  8  9  1  0  0  0  0
  8 38  1  0  0  0  0
  9 10  2  0  0  0  0
  9 11  1  0  0  0  0
 11 12  2  0  0  0  0
 11 25  1  0  0  0  0
 12 13  1  0  0  0  0
 12 39  1  0  0  0  0
 13 14  2  0  0  0  0
 13 40  1  0  0  0  0
 14 15  1  0  0  0  0
 14 24  1  0  0  0  0
 15 16  1  0  0  0  0
 15 23  1  0  0  0  0
 16 17  2  0  0  0  0
 16 41  1  0  0  0  0
 17 18  1  0  0  0  0
 17 42  1  0  0  0  0
 18 19  2  0  0  0  0
 18 23  1  0  0  0  0
 19 20  1  0  0  0  0
 19 43  1  0  0  0  0
 20 21  2  0  0  0  0
 20 44  1  0  0  0  0
 21 22  1  0  0  0  0
 21 45  1  0  0  0  0
 22 23  2  0  0  0  0
 22 46  1  0  0  0  0
 24 25  2  0  0  0  0
 24 47  1  0  0  0  0
 25 48  1  0  0  0  0
 26 27  2  0  0  0  0
 26 49  1  0  0  0  0
 27 50  1  0  0  0  0
 28 29  2  0  0  0  0
 28 30  1  0  0  0  0
 30 51  1  0  0  0  0
M  END
$$$$
