
 OpenBabel01122422403D

 45 48  0  0  0  0  0  0  0  0999 V2000
    1.6069    0.9344    0.3016 C   0  0  0  0  0  0  0  0  0  0  0  0
    2.6240   -0.0149   -0.0014 O   0  0  0  0  0  0  0  0  0  0  0  0
    3.2203    0.2104   -1.2301 C   0  0  0  0  0  0  0  0  0  0  0  0
    4.1870   -0.7045   -1.6083 C   0  0  0  0  0  0  0  0  0  0  0  0
    4.8145   -0.5247   -2.8303 C   0  0  0  0  0  0  0  0  0  0  0  0
    4.4527    0.5673   -3.6308 C   0  0  0  0  0  0  0  0  0  0  0  0
    5.0508    0.7820   -4.8789 C   0  0  0  0  0  0  0  0  0  0  0  0
    4.6771    1.8679   -5.6896 C   0  0  0  0  0  0  0  0  0  0  0  0
    5.3535    1.9679   -7.0172 C   0  0  0  0  0  0  0  0  0  0  0  0
    6.0702    1.0269   -7.3545 O   0  0  0  0  0  0  0  0  0  0  0  0
    5.1842    3.1301   -7.7619 N   0  0  0  0  0  0  0  0  0  0  0  0
    5.7800    3.3641   -8.9886 C   0  0  0  0  0  0  0  0  0  0  0  0
    6.2662    2.3999   -9.7884 C   0  0  0  0  0  0  0  0  0  0  0  0
    6.9817    2.6545  -10.9551 N   0  0  0  0  0  0  0  0  0  0  0  0
    7.6297    1.5765  -11.6502 C   0  0  0  0  0  0  0  0  0  0  0  0
    8.2268    0.5289  -10.9267 C   0  0  0  0  0  0  0  0  0  0  0  0
    8.9386   -0.4787  -11.5809 C   0  0  0  0  0  0  0  0  0  0  0  0
    9.0302   -0.4748  -12.9695 C   0  0  0  0  0  0  0  0  0  0  0  0
    8.4049    0.5312  -13.7033 C   0  0  0  0  0  0  0  0  0  0  0  0
    7.7166    1.5559  -13.0472 C   0  0  0  0  0  0  0  0  0  0  0  0
    7.2169    3.9763  -11.3721 C   0  0  0  0  0  0  0  0  0  0  0  0
    7.8994    4.3413  -12.3275 O   0  0  0  0  0  0  0  0  0  0  0  0
    6.6085    5.0410  -10.5227 C   0  0  0  0  0  0  0  0  0  0  0  0
    5.9254    4.7382   -9.4114 C   0  0  0  0  0  0  0  0  0  0  0  0
    3.7009    2.7430   -5.2278 C   0  0  0  0  0  0  0  0  0  0  0  0
    3.1082    2.5277   -3.9717 C   0  0  0  0  0  0  0  0  0  0  0  0
    3.4597    1.4514   -3.1612 C   0  0  0  0  0  0  0  0  0  0  0  0
    2.8516    1.2760   -1.9773 N   0  0  0  0  0  0  0  0  0  0  0  0
    1.2035    0.6841    1.2864 H   0  0  0  0  0  0  0  0  0  0  0  0
    0.7854    0.8777   -0.4192 H   0  0  0  0  0  0  0  0  0  0  0  0
    2.0140    1.9500    0.3565 H   0  0  0  0  0  0  0  0  0  0  0  0
    4.4402   -1.5403   -0.9654 H   0  0  0  0  0  0  0  0  0  0  0  0
    5.5738   -1.2278   -3.1547 H   0  0  0  0  0  0  0  0  0  0  0  0
    5.8137    0.0856   -5.2270 H   0  0  0  0  0  0  0  0  0  0  0  0
    4.7627    3.9280   -7.3074 H   0  0  0  0  0  0  0  0  0  0  0  0
    6.1145    1.3505   -9.5616 H   0  0  0  0  0  0  0  0  0  0  0  0
    8.2061    0.5184   -9.8388 H   0  0  0  0  0  0  0  0  0  0  0  0
    9.4372   -1.2512  -11.0014 H   0  0  0  0  0  0  0  0  0  0  0  0
    9.5954   -1.2502  -13.4792 H   0  0  0  0  0  0  0  0  0  0  0  0
    8.4635    0.5300  -14.7884 H   0  0  0  0  0  0  0  0  0  0  0  0
    7.2367    2.3282  -13.6431 H   0  0  0  0  0  0  0  0  0  0  0  0
    6.7813    6.0598  -10.8454 H   0  0  0  0  0  0  0  0  0  0  0  0
    5.5076    5.5351   -8.8068 H   0  0  0  0  0  0  0  0  0  0  0  0
    3.3544    3.5901   -5.8106 H   0  0  0  0  0  0  0  0  0  0  0  0
    2.3408    3.2121   -3.6154 H   0  0  0  0  0  0  0  0  0  0  0  0
  1  2  1  0  0  0  0
  1 29  1  0  0  0  0
  1 30  1  0  0  0  0
  1 31  1  0  0  0  0
  2  3  1  0  0  0  0
  3  4  2  0  0  0  0
  3 28  1  0  0  0  0
  4  5  1  0  0  0  0
  4 32  1  0  0  0  0
  5  6  2  0  0  0  0
  5 33  1  0  0  0  0
  6  7  1  0  0  0  0
  6 27  1  0  0  0  0
  7  8  2  0  0  0  0
  7 34  1  0  0  0  0
  8  9  1  0  0  0  0
  8 25  1  0  0  0  0
  9 10  2  0  0  0  0
  9 11  1  0  0  0  0
 11 12  1  0  0  0  0
 11 35  1  0  0  0  0
 12 13  2  0  0  0  0
 12 24  1  0  0  0  0
 13 14  1  0  0  0  0
 13 36  1  0  0  0  0
 14 15  1  0  0  0  0
 14 21  1  0  0  0  0
 15 16  2  0  0  0  0
 15 20  1  0  0  0  0
 16 17  1  0  0  0  0
 16 37  1  0  0  0  0
 17 18  2  0  0  0  0
 17 38  1  0  0  0  0
 18 19  1  0  0  0  0
 18 39  1  0  0  0  0
 19 20  2  0  0  0  0
 19 40  1  0  0  0  0
 20 41  1  0  0  0  0
 21 22  2  0  0  0  0
 21 23  1  0  0  0  0
 23 24  2  0  0  0  0
 23 42  1  0  0  0  0
 24 43  1  0  0  0  0
 25 26  2  0  0  0  0
 25 44  1  0  0  0  0
 26 27  1  0  0  0  0
 26 45  1  0  0  0  0
 27 28  2  0  0  0  0
M  END
$$$$
