
 OpenBabel01122422353D

 46 49  0  0  0  0  0  0  0  0999 V2000
    1.4199   -0.9012   -2.9050 C   0  0  0  0  0  0  0  0  0  0  0  0
    2.7225   -1.1470   -3.0362 C   0  0  0  0  0  0  0  0  0  0  0  0
    3.3690   -1.8351   -4.1581 C   0  0  0  0  0  0  0  0  0  0  0  0
    2.8670   -2.4748   -5.2806 C   0  0  0  0  0  0  0  0  0  0  0  0
    3.7731   -3.0862   -6.1573 C   0  0  0  0  0  0  0  0  0  0  0  0
    5.1582   -3.0574   -5.9067 C   0  0  0  0  0  0  0  0  0  0  0  0
    5.6616   -2.4124   -4.7759 C   0  0  0  0  0  0  0  0  0  0  0  0
    4.7464   -1.8153   -3.9271 C   0  0  0  0  0  0  0  0  0  0  0  0
    4.9833   -1.1116   -2.6565 C   0  0  0  0  0  0  0  0  0  0  0  0
    6.0681   -0.8546   -2.1621 O   0  0  0  0  0  0  0  0  0  0  0  0
    3.7322   -0.7877   -2.1597 N   0  0  0  0  0  0  0  0  0  0  0  0
    3.5692   -0.2561   -0.8206 C   0  0  0  0  0  0  0  0  0  0  0  0
    3.9986    1.1988   -0.7635 C   0  0  0  0  0  0  0  0  0  0  0  0
    3.2190    2.1216   -0.9934 O   0  0  0  0  0  0  0  0  0  0  0  0
    5.3640    1.3781   -0.5358 N   0  0  0  0  0  0  0  0  0  0  0  0
    5.9003    2.6520   -0.4506 C   0  0  0  0  0  0  0  0  0  0  0  0
    5.4446    3.6052    0.3874 C   0  0  0  0  0  0  0  0  0  0  0  0
    4.5024    3.3444    1.4139 C   0  0  0  0  0  0  0  0  0  0  0  0
    3.7527    3.0596    2.2628 N   0  0  0  0  0  0  0  0  0  0  0  0
    6.0124    4.9870    0.3195 C   0  0  0  0  0  0  0  0  0  0  0  0
    5.6496    5.8233    1.1470 O   0  0  0  0  0  0  0  0  0  0  0  0
    6.9697    5.2199   -0.6880 N   0  0  0  0  0  0  0  0  0  0  0  0
    7.5288    6.5314   -0.7813 C   0  0  0  0  0  0  0  0  0  0  0  0
    8.9176    6.7049   -0.7653 C   0  0  0  0  0  0  0  0  0  0  0  0
    9.4644    7.9892   -0.7391 C   0  0  0  0  0  0  0  0  0  0  0  0
    8.6304    9.1057   -0.7755 C   0  0  0  0  0  0  0  0  0  0  0  0
    7.2484    8.9420   -0.8412 C   0  0  0  0  0  0  0  0  0  0  0  0
    6.6981    7.6600   -0.8330 C   0  0  0  0  0  0  0  0  0  0  0  0
    7.4402    4.1874   -1.4873 C   0  0  0  0  0  0  0  0  0  0  0  0
    6.9695    2.9416   -1.3761 C   0  0  0  0  0  0  0  0  0  0  0  0
    0.7020   -1.2056   -3.6596 H   0  0  0  0  0  0  0  0  0  0  0  0
    1.0106   -0.3537   -2.0608 H   0  0  0  0  0  0  0  0  0  0  0  0
    1.8012   -2.5158   -5.4819 H   0  0  0  0  0  0  0  0  0  0  0  0
    3.4006   -3.5985   -7.0433 H   0  0  0  0  0  0  0  0  0  0  0  0
    5.8394   -3.5510   -6.5980 H   0  0  0  0  0  0  0  0  0  0  0  0
    6.7236   -2.3902   -4.5608 H   0  0  0  0  0  0  0  0  0  0  0  0
    4.1817   -0.8439   -0.1283 H   0  0  0  0  0  0  0  0  0  0  0  0
    2.5337   -0.3233   -0.4770 H   0  0  0  0  0  0  0  0  0  0  0  0
    5.9396    0.6420   -0.9542 H   0  0  0  0  0  0  0  0  0  0  0  0
    9.5815    5.8487   -0.6892 H   0  0  0  0  0  0  0  0  0  0  0  0
   10.5403    8.1174   -0.6606 H   0  0  0  0  0  0  0  0  0  0  0  0
    9.0568   10.1047   -0.7379 H   0  0  0  0  0  0  0  0  0  0  0  0
    6.5961    9.8107   -0.8753 H   0  0  0  0  0  0  0  0  0  0  0  0
    5.6162    7.5499   -0.8698 H   0  0  0  0  0  0  0  0  0  0  0  0
    8.1803    4.4403   -2.2421 H   0  0  0  0  0  0  0  0  0  0  0  0
    7.3356    2.1592   -2.0354 H   0  0  0  0  0  0  0  0  0  0  0  0
  1  2  2  0  0  0  0
  1 31  1  0  0  0  0
  1 32  1  0  0  0  0
  2  3  1  0  0  0  0
  2 11  1  0  0  0  0
  3  4  2  0  0  0  0
  3  8  1  0  0  0  0
  4  5  1  0  0  0  0
  4 33  1  0  0  0  0
  5  6  2  0  0  0  0
  5 34  1  0  0  0  0
  6  7  1  0  0  0  0
  6 35  1  0  0  0  0
  7  8  2  0  0  0  0
  7 36  1  0  0  0  0
  8  9  1  0  0  0  0
  9 10  2  0  0  0  0
  9 11  1  0  0  0  0
 11 12  1  0  0  0  0
 12 13  1  0  0  0  0
 12 37  1  0  0  0  0
 12 38  1  0  0  0  0
 13 14  2  0  0  0  0
 13 15  1  0  0  0  0
 15 16  1  0  0  0  0
 15 39  1  0  0  0  0
 16 17  2  0  0  0  0
 16 30  1  0  0  0  0
 17 18  1  0  0  0  0
 17 20  1  0  0  0  0
 18 19  3  0  0  0  0
 20 21  2  0  0  0  0
 20 22  1  0  0  0  0
 22 23  1  0  0  0  0
 22 29  1  0  0  0  0
 23 24  2  0  0  0  0
 23 28  1  0  0  0  0
 24 25  1  0  0  0  0
 24 40  1  0  0  0  0
 25 26  2  0  0  0  0
 25 41  1  0  0  0  0
 26 27  1  0  0  0  0
 26 42  1  0  0  0  0
 27 28  2  0  0  0  0
 27 43  1  0  0  0  0
 28 44  1  0  0  0  0
 29 30  2  0  0  0  0
 29 45  1  0  0  0  0
 30 46  1  0  0  0  0
M  END
$$$$
