
 OpenBabel01122422403D

 45 48  0  0  0  0  0  0  0  0999 V2000
    1.0496    0.3833   -0.3571 O   0  0  0  0  0  0  0  0  0  0  0  0
    2.2713    0.3891   -0.2527 C   0  0  0  0  0  0  0  0  0  0  0  0
    2.9621    1.3059    0.5186 N   0  0  0  0  0  0  0  0  0  0  0  0
    2.2696    2.3538    1.2535 C   0  0  0  0  0  0  0  0  0  0  0  0
    3.2502    3.2951    1.8701 C   0  0  0  0  0  0  0  0  0  0  0  0
    4.3946    3.0386    2.4712 N   0  0  0  0  0  0  0  0  0  0  0  0
    4.9319    4.2631    2.8246 N   0  0  0  0  0  0  0  0  0  0  0  0
    4.0830    5.1864    2.4148 C   0  0  0  0  0  0  0  0  0  0  0  0
    4.1933    6.6438    2.4360 C   0  0  0  0  0  0  0  0  0  0  0  0
    5.3935    7.2496    2.8444 C   0  0  0  0  0  0  0  0  0  0  0  0
    5.5521    8.6390    2.7952 C   0  0  0  0  0  0  0  0  0  0  0  0
    4.5072    9.4441    2.3477 C   0  0  0  0  0  0  0  0  0  0  0  0
    3.2996    8.8636    1.9672 C   0  0  0  0  0  0  0  0  0  0  0  0
    3.1429    7.4739    2.0135 C   0  0  0  0  0  0  0  0  0  0  0  0
    2.9764    4.6391    1.8072 O   0  0  0  0  0  0  0  0  0  0  0  0
    3.1009   -0.6082   -0.9971 C   0  0  0  0  0  0  0  0  0  0  0  0
    4.3762   -0.2150   -1.4346 C   0  0  0  0  0  0  0  0  0  0  0  0
    5.1501   -1.1225   -2.1315 C   0  0  0  0  0  0  0  0  0  0  0  0
    4.7446   -2.3681   -2.4217 N   0  0  0  0  0  0  0  0  0  0  0  0
    3.5001   -2.7174   -2.0099 C   0  0  0  0  0  0  0  0  0  0  0  0
    2.6123   -1.8933   -1.3115 C   0  0  0  0  0  0  0  0  0  0  0  0
    1.3451   -2.3563   -0.8881 N   0  0  0  0  0  0  0  0  0  0  0  0
    0.8593   -3.6774   -0.8308 C   0  0  0  0  0  0  0  0  0  0  0  0
    1.6372   -4.7131   -0.2951 C   0  0  0  0  0  0  0  0  0  0  0  0
    1.1824   -6.0280   -0.3206 C   0  0  0  0  0  0  0  0  0  0  0  0
    1.9432   -6.9980    0.2033 F   0  0  0  0  0  0  0  0  0  0  0  0
   -0.0424   -6.3510   -0.8869 C   0  0  0  0  0  0  0  0  0  0  0  0
   -0.8271   -5.3370   -1.4314 C   0  0  0  0  0  0  0  0  0  0  0  0
   -0.3784   -4.0082   -1.4016 C   0  0  0  0  0  0  0  0  0  0  0  0
    3.9207    1.1081    0.7881 H   0  0  0  0  0  0  0  0  0  0  0  0
    1.6562    1.8859    2.0268 H   0  0  0  0  0  0  0  0  0  0  0  0
    1.6126    2.8835    0.5568 H   0  0  0  0  0  0  0  0  0  0  0  0
    6.2269    6.6387    3.1888 H   0  0  0  0  0  0  0  0  0  0  0  0
    6.4954    9.0905    3.0952 H   0  0  0  0  0  0  0  0  0  0  0  0
    4.6359   10.5232    2.2933 H   0  0  0  0  0  0  0  0  0  0  0  0
    2.4819    9.4923    1.6231 H   0  0  0  0  0  0  0  0  0  0  0  0
    2.1911    7.0487    1.7042 H   0  0  0  0  0  0  0  0  0  0  0  0
    4.7617    0.7838   -1.2670 H   0  0  0  0  0  0  0  0  0  0  0  0
    6.1409   -0.8605   -2.4920 H   0  0  0  0  0  0  0  0  0  0  0  0
    3.2176   -3.7243   -2.3066 H   0  0  0  0  0  0  0  0  0  0  0  0
    0.6397   -1.6161   -0.8563 H   0  0  0  0  0  0  0  0  0  0  0  0
    2.5997   -4.5058    0.1622 H   0  0  0  0  0  0  0  0  0  0  0  0
   -0.3712   -7.3854   -0.9044 H   0  0  0  0  0  0  0  0  0  0  0  0
   -1.7829   -5.5807   -1.8896 H   0  0  0  0  0  0  0  0  0  0  0  0
   -0.9958   -3.2371   -1.8566 H   0  0  0  0  0  0  0  0  0  0  0  0
  1  2  2  0  0  0  0
  2  3  1  0  0  0  0
  2 16  1  0  0  0  0
  3  4  1  0  0  0  0
  3 30  1  0  0  0  0
  4  5  1  0  0  0  0
  4 31  1  0  0  0  0
  4 32  1  0  0  0  0
  5  6  2  0  0  0  0
  5 15  1  0  0  0  0
  6  7  1  0  0  0  0
  7  8  2  0  0  0  0
  8  9  1  0  0  0  0
  8 15  1  0  0  0  0
  9 10  2  0  0  0  0
  9 14  1  0  0  0  0
 10 11  1  0  0  0  0
 10 33  1  0  0  0  0
 11 12  2  0  0  0  0
 11 34  1  0  0  0  0
 12 13  1  0  0  0  0
 12 35  1  0  0  0  0
 13 14  2  0  0  0  0
 13 36  1  0  0  0  0
 14 37  1  0  0  0  0
 16 17  2  0  0  0  0
 16 21  1  0  0  0  0
 17 18  1  0  0  0  0
 17 38  1  0  0  0  0
 18 19  2  0  0  0  0
 18 39  1  0  0  0  0
 19 20  1  0  0  0  0
 20 21  2  0  0  0  0
 20 40  1  0  0  0  0
 21 22  1  0  0  0  0
 22 23  1  0  0  0  0
 22 41  1  0  0  0  0
 23 24  2  0  0  0  0
 23 29  1  0  0  0  0
 24 25  1  0  0  0  0
 24 42  1  0  0  0  0
 25 26  1  0  0  0  0
 25 27  2  0  0  0  0
 27 28  1  0  0  0  0
 27 43  1  0  0  0  0
 28 29  2  0  0  0  0
 28 44  1  0  0  0  0
 29 45  1  0  0  0  0
M  END
$$$$
