
 OpenBabel01122422403D

 40 43  0  0  0  0  0  0  0  0999 V2000
    1.0878   -0.1786    0.0670 O   0  0  0  0  0  0  0  0  0  0  0  0
    2.2918    0.0312    0.0375 C   0  0  0  0  0  0  0  0  0  0  0  0
    2.9248    1.2626    0.1154 N   0  0  0  0  0  0  0  0  0  0  0  0
    2.2728    2.5043    0.2697 C   0  0  0  0  0  0  0  0  0  0  0  0
    0.9502    2.6227    0.6999 C   0  0  0  0  0  0  0  0  0  0  0  0
    0.3236    3.8712    0.7540 C   0  0  0  0  0  0  0  0  0  0  0  0
    1.0193    5.0265    0.3772 C   0  0  0  0  0  0  0  0  0  0  0  0
    0.3491    6.2684    0.3744 N   0  0  0  0  0  0  0  0  0  0  0  0
    0.7838    7.5173    0.0086 C   0  0  0  0  0  0  0  0  0  0  0  0
   -0.1956    8.3810    0.1523 N   0  0  0  0  0  0  0  0  0  0  0  0
   -1.2627    7.6602    0.6136 N   0  0  0  0  0  0  0  0  0  0  0  0
   -0.9479    6.3812    0.7517 N   0  0  0  0  0  0  0  0  0  0  0  0
    2.3557    4.9095   -0.0017 C   0  0  0  0  0  0  0  0  0  0  0  0
    3.0811    5.9786   -0.3558 F   0  0  0  0  0  0  0  0  0  0  0  0
    2.9863    3.6634   -0.0428 C   0  0  0  0  0  0  0  0  0  0  0  0
    3.1854   -1.1266   -0.1623 C   0  0  0  0  0  0  0  0  0  0  0  0
    4.4274   -1.2360    0.4670 C   0  0  0  0  0  0  0  0  0  0  0  0
    5.2285   -2.3719    0.2653 C   0  0  0  0  0  0  0  0  0  0  0  0
    6.5436   -2.5154    0.9219 C   0  0  0  0  0  0  0  0  0  0  0  0
    6.7735   -2.0026    2.2115 C   0  0  0  0  0  0  0  0  0  0  0  0
    8.0298   -2.0927    2.8040 C   0  0  0  0  0  0  0  0  0  0  0  0
    8.2190   -1.5681    4.0217 F   0  0  0  0  0  0  0  0  0  0  0  0
    9.0870   -2.7083    2.1520 C   0  0  0  0  0  0  0  0  0  0  0  0
    8.8828   -3.2451    0.8853 C   0  0  0  0  0  0  0  0  0  0  0  0
    7.6256   -3.1455    0.2766 C   0  0  0  0  0  0  0  0  0  0  0  0
    4.7016   -3.3453   -0.5917 C   0  0  0  0  0  0  0  0  0  0  0  0
    3.5006   -3.2682   -1.2173 N   0  0  0  0  0  0  0  0  0  0  0  0
    2.7593   -2.1643   -0.9748 C   0  0  0  0  0  0  0  0  0  0  0  0
    3.9070    1.2980   -0.1305 H   0  0  0  0  0  0  0  0  0  0  0  0
    0.3697    1.7547    1.0023 H   0  0  0  0  0  0  0  0  0  0  0  0
   -0.7166    3.9083    1.0760 H   0  0  0  0  0  0  0  0  0  0  0  0
    1.7746    7.7454   -0.3486 H   0  0  0  0  0  0  0  0  0  0  0  0
    4.0235    3.6220   -0.3621 H   0  0  0  0  0  0  0  0  0  0  0  0
    4.7607   -0.4453    1.1332 H   0  0  0  0  0  0  0  0  0  0  0  0
    5.9817   -1.5274    2.7840 H   0  0  0  0  0  0  0  0  0  0  0  0
   10.0580   -2.7642    2.6328 H   0  0  0  0  0  0  0  0  0  0  0  0
    9.7017   -3.7341    0.3632 H   0  0  0  0  0  0  0  0  0  0  0  0
    7.5131   -3.5559   -0.7258 H   0  0  0  0  0  0  0  0  0  0  0  0
    5.2401   -4.2663   -0.8044 H   0  0  0  0  0  0  0  0  0  0  0  0
    1.7925   -2.1359   -1.4714 H   0  0  0  0  0  0  0  0  0  0  0  0
  1  2  2  0  0  0  0
  2  3  1  0  0  0  0
  2 16  1  0  0  0  0
  3  4  1  0  0  0  0
  3 29  1  0  0  0  0
  4  5  2  0  0  0  0
  4 15  1  0  0  0  0
  5  6  1  0  0  0  0
  5 30  1  0  0  0  0
  6  7  2  0  0  0  0
  6 31  1  0  0  0  0
  7  8  1  0  0  0  0
  7 13  1  0  0  0  0
  8  9  1  0  0  0  0
  8 12  1  0  0  0  0
  9 10  2  0  0  0  0
  9 32  1  0  0  0  0
 10 11  1  0  0  0  0
 11 12  2  0  0  0  0
 13 14  1  0  0  0  0
 13 15  2  0  0  0  0
 15 33  1  0  0  0  0
 16 17  2  0  0  0  0
 16 28  1  0  0  0  0
 17 18  1  0  0  0  0
 17 34  1  0  0  0  0
 18 19  1  0  0  0  0
 18 26  2  0  0  0  0
 19 20  2  0  0  0  0
 19 25  1  0  0  0  0
 20 21  1  0  0  0  0
 20 35  1  0  0  0  0
 21 22  1  0  0  0  0
 21 23  2  0  0  0  0
 23 24  1  0  0  0  0
 23 36  1  0  0  0  0
 24 25  2  0  0  0  0
 24 37  1  0  0  0  0
 25 38  1  0  0  0  0
 26 27  1  0  0  0  0
 26 39  1  0  0  0  0
 27 28  2  0  0  0  0
 28 40  1  0  0  0  0
M  END
$$$$
