
 OpenBabel01122422403D

 47 50  0  0  0  0  0  0  0  0999 V2000
    4.8199   -1.9796   -1.2686 O   0  0  0  0  0  0  0  0  0  0  0  0
    4.1493   -1.0597   -0.7980 C   0  0  0  0  0  0  0  0  0  0  0  0
    2.9982   -0.5099   -1.3610 N   0  0  0  0  0  0  0  0  0  0  0  0
    2.3662   -0.9874   -2.5057 C   0  0  0  0  0  0  0  0  0  0  0  0
    1.3020   -0.2664   -3.0266 C   0  0  0  0  0  0  0  0  0  0  0  0
    0.6163   -0.7623   -4.1417 C   0  0  0  0  0  0  0  0  0  0  0  0
    0.9618   -1.9959   -4.7033 C   0  0  0  0  0  0  0  0  0  0  0  0
    0.1294   -2.6230   -5.7685 C   0  0  0  0  0  0  0  0  0  0  0  0
    0.5219   -3.7624   -6.3497 C   0  0  0  0  0  0  0  0  0  0  0  0
   -0.4941   -4.5133   -7.0893 C   0  0  0  0  0  0  0  0  0  0  0  0
   -0.3777   -5.7347   -7.1733 O   0  0  0  0  0  0  0  0  0  0  0  0
   -1.5263   -3.7622   -7.6053 N   0  0  0  0  0  0  0  0  0  0  0  0
   -2.3411   -4.3237   -8.5768 C   0  0  0  0  0  0  0  0  0  0  0  0
   -3.3587   -3.6446   -9.1078 C   0  0  0  0  0  0  0  0  0  0  0  0
   -3.6636   -2.3255   -8.6317 C   0  0  0  0  0  0  0  0  0  0  0  0
   -2.9656   -1.7430   -7.6473 C   0  0  0  0  0  0  0  0  0  0  0  0
   -3.3439   -0.4632   -7.2629 O   0  0  0  0  0  0  0  0  0  0  0  0
   -2.3485    0.3352   -6.6323 C   0  0  0  0  0  0  0  0  0  0  0  0
   -2.7565    1.7873   -6.6824 C   0  0  0  0  0  0  0  0  0  0  0  0
   -3.9066    2.2186   -6.0069 C   0  0  0  0  0  0  0  0  0  0  0  0
   -4.2612    3.5666   -6.0054 C   0  0  0  0  0  0  0  0  0  0  0  0
   -3.4738    4.4926   -6.6871 C   0  0  0  0  0  0  0  0  0  0  0  0
   -2.3338    4.0732   -7.3706 C   0  0  0  0  0  0  0  0  0  0  0  0
   -1.9780    2.7294   -7.3680 C   0  0  0  0  0  0  0  0  0  0  0  0
   -1.7801   -2.5042   -7.0589 C   0  0  0  0  0  0  0  0  0  0  0  0
   -1.0428   -1.9945   -6.1155 N   0  0  0  0  0  0  0  0  0  0  0  0
    2.0437   -2.6384   -4.1014 C   0  0  0  0  0  0  0  0  0  0  0  0
    2.7417   -2.1566   -3.0425 N   0  0  0  0  0  0  0  0  0  0  0  0
    4.5552   -0.3606    0.5088 C   0  0  0  0  0  0  0  0  0  0  0  0
    3.6066    0.5384    0.9156 F   0  0  0  0  0  0  0  0  0  0  0  0
    4.7303   -1.2230    1.5463 F   0  0  0  0  0  0  0  0  0  0  0  0
    5.7096    0.3484    0.3829 F   0  0  0  0  0  0  0  0  0  0  0  0
    2.5876    0.2948   -0.9035 H   0  0  0  0  0  0  0  0  0  0  0  0
    0.9876    0.6716   -2.5848 H   0  0  0  0  0  0  0  0  0  0  0  0
   -0.2162   -0.1876   -4.5344 H   0  0  0  0  0  0  0  0  0  0  0  0
    1.4682   -4.2625   -6.2172 H   0  0  0  0  0  0  0  0  0  0  0  0
   -2.0903   -5.3304   -8.9076 H   0  0  0  0  0  0  0  0  0  0  0  0
   -3.9679   -4.0791   -9.8971 H   0  0  0  0  0  0  0  0  0  0  0  0
   -4.4885   -1.8007   -9.1026 H   0  0  0  0  0  0  0  0  0  0  0  0
   -1.3819    0.2282   -7.1367 H   0  0  0  0  0  0  0  0  0  0  0  0
   -2.2660    0.0528   -5.5765 H   0  0  0  0  0  0  0  0  0  0  0  0
   -4.5295    1.4996   -5.4771 H   0  0  0  0  0  0  0  0  0  0  0  0
   -5.1552    3.8925   -5.4812 H   0  0  0  0  0  0  0  0  0  0  0  0
   -3.7523    5.5435   -6.6908 H   0  0  0  0  0  0  0  0  0  0  0  0
   -1.7231    4.7976   -7.9036 H   0  0  0  0  0  0  0  0  0  0  0  0
   -1.0745    2.4159   -7.9019 H   0  0  0  0  0  0  0  0  0  0  0  0
    2.3930   -3.6113   -4.4178 H   0  0  0  0  0  0  0  0  0  0  0  0
  1  2  2  0  0  0  0
  2  3  1  0  0  0  0
  2 29  1  0  0  0  0
  3  4  1  0  0  0  0
  3 33  1  0  0  0  0
  4  5  2  0  0  0  0
  4 28  1  0  0  0  0
  5  6  1  0  0  0  0
  5 34  1  0  0  0  0
  6  7  2  0  0  0  0
  6 35  1  0  0  0  0
  7  8  1  0  0  0  0
  7 27  1  0  0  0  0
  8  9  2  0  0  0  0
  8 26  1  0  0  0  0
  9 10  1  0  0  0  0
  9 36  1  0  0  0  0
 10 11  2  0  0  0  0
 10 12  1  0  0  0  0
 12 13  1  0  0  0  0
 12 25  1  0  0  0  0
 13 14  2  0  0  0  0
 13 37  1  0  0  0  0
 14 15  1  0  0  0  0
 14 38  1  0  0  0  0
 15 16  2  0  0  0  0
 15 39  1  0  0  0  0
 16 17  1  0  0  0  0
 16 25  1  0  0  0  0
 17 18  1  0  0  0  0
 18 19  1  0  0  0  0
 18 40  1  0  0  0  0
 18 41  1  0  0  0  0
 19 20  2  0  0  0  0
 19 24  1  0  0  0  0
 20 21  1  0  0  0  0
 20 42  1  0  0  0  0
 21 22  2  0  0  0  0
 21 43  1  0  0  0  0
 22 23  1  0  0  0  0
 22 44  1  0  0  0  0
 23 24  2  0  0  0  0
 23 45  1  0  0  0  0
 24 46  1  0  0  0  0
 25 26  2  0  0  0  0
 27 28  2  0  0  0  0
 27 47  1  0  0  0  0
 29 30  1  0  0  0  0
 29 31  1  0  0  0  0
 29 32  1  0  0  0  0
M  END
$$$$
