
 OpenBabel01122422403D

 54 57  0  0  0  0  0  0  0  0999 V2000
    1.0736    0.1219   -1.1839 C   0  0  0  0  0  0  0  0  0  0  0  0
    2.5156    0.1136   -1.0357 N   0  0  0  0  0  0  0  0  0  0  0  0
    3.2428    1.2157   -1.4567 C   0  0  0  0  0  0  0  0  0  0  0  0
    2.7470    2.2240   -1.9574 O   0  0  0  0  0  0  0  0  0  0  0  0
    4.5998    1.1522   -1.2989 N   0  0  0  0  0  0  0  0  0  0  0  0
    5.2747    0.0398   -0.8005 C   0  0  0  0  0  0  0  0  0  0  0  0
    6.6692    0.0355   -0.7291 C   0  0  0  0  0  0  0  0  0  0  0  0
    7.3412   -1.1157   -0.2824 C   0  0  0  0  0  0  0  0  0  0  0  0
    8.8271   -1.0846   -0.2045 C   0  0  0  0  0  0  0  0  0  0  0  0
    9.4115   -0.0195   -0.0243 O   0  0  0  0  0  0  0  0  0  0  0  0
    9.4785   -2.2872   -0.3670 N   0  0  0  0  0  0  0  0  0  0  0  0
   10.9211   -2.3578   -0.3235 C   0  0  0  0  0  0  0  0  0  0  0  0
   11.4113   -3.7661   -0.5453 C   0  0  0  0  0  0  0  0  0  0  0  0
   11.5365   -4.6496    0.5363 C   0  0  0  0  0  0  0  0  0  0  0  0
   12.0312   -5.9404    0.3447 C   0  0  0  0  0  0  0  0  0  0  0  0
   12.4144   -6.3573   -0.9300 C   0  0  0  0  0  0  0  0  0  0  0  0
   12.2813   -5.4971   -2.0292 C   0  0  0  0  0  0  0  0  0  0  0  0
   12.7649   -5.9838   -3.3530 C   0  0  0  0  0  0  0  0  0  0  0  0
   13.2783   -7.0818   -3.5035 O   0  0  0  0  0  0  0  0  0  0  0  0
   12.5932   -5.0455   -4.3141 O   0  0  0  0  0  0  0  0  0  0  0  0
   13.1241   -5.3737   -5.6064 C   0  0  0  0  0  0  0  0  0  0  0  0
   12.0202   -5.3212   -6.6314 C   0  0  0  0  0  0  0  0  0  0  0  0
   11.7353   -4.1309   -7.3149 C   0  0  0  0  0  0  0  0  0  0  0  0
   10.7058   -4.0841   -8.2568 C   0  0  0  0  0  0  0  0  0  0  0  0
    9.9492   -5.2241   -8.5220 C   0  0  0  0  0  0  0  0  0  0  0  0
   10.2245   -6.4135   -7.8497 C   0  0  0  0  0  0  0  0  0  0  0  0
   11.2525   -6.4621   -6.9060 C   0  0  0  0  0  0  0  0  0  0  0  0
   11.7536   -4.2110   -1.8352 C   0  0  0  0  0  0  0  0  0  0  0  0
    6.6063   -2.2425    0.1109 C   0  0  0  0  0  0  0  0  0  0  0  0
    5.2097   -2.2177    0.0661 C   0  0  0  0  0  0  0  0  0  0  0  0
    4.5501   -1.0735   -0.3923 C   0  0  0  0  0  0  0  0  0  0  0  0
    3.0779   -1.0251   -0.4651 C   0  0  0  0  0  0  0  0  0  0  0  0
    2.4244   -1.9735   -0.0365 O   0  0  0  0  0  0  0  0  0  0  0  0
    0.7045    1.0321   -1.6625 H   0  0  0  0  0  0  0  0  0  0  0  0
    0.6119    0.0217   -0.1960 H   0  0  0  0  0  0  0  0  0  0  0  0
    0.7778   -0.7428   -1.7880 H   0  0  0  0  0  0  0  0  0  0  0  0
    5.1100    1.9675   -1.6150 H   0  0  0  0  0  0  0  0  0  0  0  0
    7.2446    0.9100   -1.0255 H   0  0  0  0  0  0  0  0  0  0  0  0
    8.9749   -3.1013   -0.6933 H   0  0  0  0  0  0  0  0  0  0  0  0
   11.2582   -1.9857    0.6529 H   0  0  0  0  0  0  0  0  0  0  0  0
   11.3365   -1.6794   -1.0759 H   0  0  0  0  0  0  0  0  0  0  0  0
   11.2651   -4.3304    1.5413 H   0  0  0  0  0  0  0  0  0  0  0  0
   12.1389   -6.6152    1.1908 H   0  0  0  0  0  0  0  0  0  0  0  0
   12.8306   -7.3552   -1.0608 H   0  0  0  0  0  0  0  0  0  0  0  0
   13.6231   -6.3488   -5.6452 H   0  0  0  0  0  0  0  0  0  0  0  0
   13.8904   -4.6274   -5.8464 H   0  0  0  0  0  0  0  0  0  0  0  0
   12.3180   -3.2334   -7.1204 H   0  0  0  0  0  0  0  0  0  0  0  0
   10.4948   -3.1578   -8.7849 H   0  0  0  0  0  0  0  0  0  0  0  0
    9.1459   -5.1856   -9.2533 H   0  0  0  0  0  0  0  0  0  0  0  0
    9.6387   -7.3044   -8.0615 H   0  0  0  0  0  0  0  0  0  0  0  0
   11.4569   -7.3979   -6.3888 H   0  0  0  0  0  0  0  0  0  0  0  0
   11.6313   -3.5373   -2.6811 H   0  0  0  0  0  0  0  0  0  0  0  0
    7.1000   -3.1370    0.4832 H   0  0  0  0  0  0  0  0  0  0  0  0
    4.6390   -3.0869    0.3880 H   0  0  0  0  0  0  0  0  0  0  0  0
  1  2  1  0  0  0  0
  1 34  1  0  0  0  0
  1 35  1  0  0  0  0
  1 36  1  0  0  0  0
  2  3  1  0  0  0  0
  2 32  1  0  0  0  0
  3  4  2  0  0  0  0
  3  5  1  0  0  0  0
  5  6  1  0  0  0  0
  5 37  1  0  0  0  0
  6  7  2  0  0  0  0
  6 31  1  0  0  0  0
  7  8  1  0  0  0  0
  7 38  1  0  0  0  0
  8  9  1  0  0  0  0
  8 29  2  0  0  0  0
  9 10  2  0  0  0  0
  9 11  1  0  0  0  0
 11 12  1  0  0  0  0
 11 39  1  0  0  0  0
 12 13  1  0  0  0  0
 12 40  1  0  0  0  0
 12 41  1  0  0  0  0
 13 14  2  0  0  0  0
 13 28  1  0  0  0  0
 14 15  1  0  0  0  0
 14 42  1  0  0  0  0
 15 16  2  0  0  0  0
 15 43  1  0  0  0  0
 16 17  1  0  0  0  0
 16 44  1  0  0  0  0
 17 18  1  0  0  0  0
 17 28  2  0  0  0  0
 18 19  2  0  0  0  0
 18 20  1  0  0  0  0
 20 21  1  0  0  0  0
 21 22  1  0  0  0  0
 21 45  1  0  0  0  0
 21 46  1  0  0  0  0
 22 23  2  0  0  0  0
 22 27  1  0  0  0  0
 23 24  1  0  0  0  0
 23 47  1  0  0  0  0
 24 25  2  0  0  0  0
 24 48  1  0  0  0  0
 25 26  1  0  0  0  0
 25 49  1  0  0  0  0
 26 27  2  0  0  0  0
 26 50  1  0  0  0  0
 27 51  1  0  0  0  0
 28 52  1  0  0  0  0
 29 30  1  0  0  0  0
 29 53  1  0  0  0  0
 30 31  2  0  0  0  0
 30 54  1  0  0  0  0
 31 32  1  0  0  0  0
 32 33  2  0  0  0  0
M  END
$$$$
