
 OpenBabel01122422403D

 54 56  0  0  0  0  0  0  0  0999 V2000
    2.9035    1.6395    1.8346 N   0  0  0  0  0  0  0  0  0  0  0  0
    2.3366    0.4918    1.3680 C   0  0  0  0  0  0  0  0  0  0  0  0
    1.1200    0.4377    1.2040 O   0  0  0  0  0  0  0  0  0  0  0  0
    3.2432   -0.7343    1.2208 C   0  0  0  0  0  0  0  0  0  0  0  0
    4.6889   -0.5192    1.0051 N   0  0  0  0  0  0  0  0  0  0  0  0
    5.0978    0.2502   -0.1809 C   0  0  0  0  0  0  0  0  0  0  0  0
    4.8327   -0.3961   -1.5238 C   0  0  0  0  0  0  0  0  0  0  0  0
    4.7127    0.4197   -2.6584 C   0  0  0  0  0  0  0  0  0  0  0  0
    4.5908   -0.1345   -3.9415 C   0  0  0  0  0  0  0  0  0  0  0  0
    4.6004   -1.5234   -4.1456 C   0  0  0  0  0  0  0  0  0  0  0  0
    4.5538   -2.1251   -5.5036 C   0  0  0  0  0  0  0  0  0  0  0  0
    5.1267   -1.4831   -6.6193 C   0  0  0  0  0  0  0  0  0  0  0  0
    5.1211   -2.0751   -7.8894 C   0  0  0  0  0  0  0  0  0  0  0  0
    4.5532   -3.3310   -8.0725 C   0  0  0  0  0  0  0  0  0  0  0  0
    3.9777   -3.9876   -6.9922 C   0  0  0  0  0  0  0  0  0  0  0  0
    3.9695   -3.3863   -5.7285 C   0  0  0  0  0  0  0  0  0  0  0  0
    4.6953   -2.3276   -2.9942 C   0  0  0  0  0  0  0  0  0  0  0  0
    4.8114   -1.7791   -1.7082 C   0  0  0  0  0  0  0  0  0  0  0  0
    5.5722   -1.2530    1.7963 C   0  0  0  0  0  0  0  0  0  0  0  0
    5.1801   -1.9874    2.7049 O   0  0  0  0  0  0  0  0  0  0  0  0
    7.0593   -1.1236    1.5150 C   0  0  0  0  0  0  0  0  0  0  0  0
    7.8967   -1.9940    2.4605 C   0  0  0  0  0  0  0  0  0  0  0  0
    9.3784   -1.8320    2.1964 C   0  0  0  0  0  0  0  0  0  0  0  0
    9.8068   -1.0557    1.3372 O   0  0  0  0  0  0  0  0  0  0  0  0
   10.3574   -2.6291    3.0012 C   0  0  0  0  0  0  0  0  0  0  0  0
    9.9578   -3.4772    4.0461 C   0  0  0  0  0  0  0  0  0  0  0  0
   10.9151   -4.1971    4.7724 C   0  0  0  0  0  0  0  0  0  0  0  0
   12.2634   -4.0704    4.4542 C   0  0  0  0  0  0  0  0  0  0  0  0
   13.1718   -4.7617    5.1546 F   0  0  0  0  0  0  0  0  0  0  0  0
   12.6626   -3.2330    3.4211 C   0  0  0  0  0  0  0  0  0  0  0  0
   13.9619   -3.1122    3.1164 F   0  0  0  0  0  0  0  0  0  0  0  0
   11.7213   -2.5122    2.6931 C   0  0  0  0  0  0  0  0  0  0  0  0
    2.2930    2.4316    1.9899 H   0  0  0  0  0  0  0  0  0  0  0  0
    3.8950    1.7320    1.9993 H   0  0  0  0  0  0  0  0  0  0  0  0
    2.8689   -1.3318    0.3841 H   0  0  0  0  0  0  0  0  0  0  0  0
    3.0822   -1.3207    2.1322 H   0  0  0  0  0  0  0  0  0  0  0  0
    6.1670    0.4700   -0.1402 H   0  0  0  0  0  0  0  0  0  0  0  0
    4.5891    1.2193   -0.1383 H   0  0  0  0  0  0  0  0  0  0  0  0
    4.7341    1.5038   -2.5617 H   0  0  0  0  0  0  0  0  0  0  0  0
    4.4978    0.5461   -4.7842 H   0  0  0  0  0  0  0  0  0  0  0  0
    5.6086   -0.5152   -6.5151 H   0  0  0  0  0  0  0  0  0  0  0  0
    5.5742   -1.5561   -8.7310 H   0  0  0  0  0  0  0  0  0  0  0  0
    4.5589   -3.7966   -9.0546 H   0  0  0  0  0  0  0  0  0  0  0  0
    3.5323   -4.9704   -7.1250 H   0  0  0  0  0  0  0  0  0  0  0  0
    3.4911   -3.9265   -4.9148 H   0  0  0  0  0  0  0  0  0  0  0  0
    4.7167   -3.4128   -3.0799 H   0  0  0  0  0  0  0  0  0  0  0  0
    4.9032   -2.4582   -0.8657 H   0  0  0  0  0  0  0  0  0  0  0  0
    7.3479   -0.0733    1.6403 H   0  0  0  0  0  0  0  0  0  0  0  0
    7.2557   -1.4276    0.4799 H   0  0  0  0  0  0  0  0  0  0  0  0
    7.6274   -3.0468    2.3216 H   0  0  0  0  0  0  0  0  0  0  0  0
    7.6940   -1.7051    3.4979 H   0  0  0  0  0  0  0  0  0  0  0  0
    8.9119   -3.5946    4.3190 H   0  0  0  0  0  0  0  0  0  0  0  0
   10.6178   -4.8549    5.5841 H   0  0  0  0  0  0  0  0  0  0  0  0
   12.0625   -1.8637    1.8896 H   0  0  0  0  0  0  0  0  0  0  0  0
  1  2  1  0  0  0  0
  1 33  1  0  0  0  0
  1 34  1  0  0  0  0
  2  3  2  0  0  0  0
  2  4  1  0  0  0  0
  4  5  1  0  0  0  0
  4 35  1  0  0  0  0
  4 36  1  0  0  0  0
  5  6  1  0  0  0  0
  5 19  1  0  0  0  0
  6  7  1  0  0  0  0
  6 37  1  0  0  0  0
  6 38  1  0  0  0  0
  7  8  2  0  0  0  0
  7 18  1  0  0  0  0
  8  9  1  0  0  0  0
  8 39  1  0  0  0  0
  9 10  2  0  0  0  0
  9 40  1  0  0  0  0
 10 11  1  0  0  0  0
 10 17  1  0  0  0  0
 11 12  2  0  0  0  0
 11 16  1  0  0  0  0
 12 13  1  0  0  0  0
 12 41  1  0  0  0  0
 13 14  2  0  0  0  0
 13 42  1  0  0  0  0
 14 15  1  0  0  0  0
 14 43  1  0  0  0  0
 15 16  2  0  0  0  0
 15 44  1  0  0  0  0
 16 45  1  0  0  0  0
 17 18  2  0  0  0  0
 17 46  1  0  0  0  0
 18 47  1  0  0  0  0
 19 20  2  0  0  0  0
 19 21  1  0  0  0  0
 21 22  1  0  0  0  0
 21 48  1  0  0  0  0
 21 49  1  0  0  0  0
 22 23  1  0  0  0  0
 22 50  1  0  0  0  0
 22 51  1  0  0  0  0
 23 24  2  0  0  0  0
 23 25  1  0  0  0  0
 25 26  2  0  0  0  0
 25 32  1  0  0  0  0
 26 27  1  0  0  0  0
 26 52  1  0  0  0  0
 27 28  2  0  0  0  0
 27 53  1  0  0  0  0
 28 29  1  0  0  0  0
 28 30  1  0  0  0  0
 30 31  1  0  0  0  0
 30 32  2  0  0  0  0
 32 54  1  0  0  0  0
M  END
$$$$
