
 OpenBabel01122422403D

 42 45  0  0  0  0  0  0  0  0999 V2000
    1.0961   -0.1414   -0.3917 O   0  0  0  0  0  0  0  0  0  0  0  0
    2.2812   -0.0721   -0.0779 C   0  0  0  0  0  0  0  0  0  0  0  0
    2.8661   -0.6061    1.0534 N   0  0  0  0  0  0  0  0  0  0  0  0
    2.1761   -1.2856    2.0309 C   0  0  0  0  0  0  0  0  0  0  0  0
    0.8745   -1.5398    2.0009 N   0  0  0  0  0  0  0  0  0  0  0  0
    0.6577   -2.2213    3.1412 N   0  0  0  0  0  0  0  0  0  0  0  0
   -0.6256   -2.7391    3.4426 C   0  0  0  0  0  0  0  0  0  0  0  0
   -1.6623   -2.6008    2.5020 C   0  0  0  0  0  0  0  0  0  0  0  0
   -2.9192   -3.1405    2.7686 C   0  0  0  0  0  0  0  0  0  0  0  0
   -3.1366   -3.7998    3.9723 C   0  0  0  0  0  0  0  0  0  0  0  0
   -4.3432   -4.3236    4.2252 F   0  0  0  0  0  0  0  0  0  0  0  0
   -2.1216   -3.9284    4.9174 C   0  0  0  0  0  0  0  0  0  0  0  0
   -0.8568   -3.4000    4.6558 C   0  0  0  0  0  0  0  0  0  0  0  0
    1.7423   -2.4004    3.9444 N   0  0  0  0  0  0  0  0  0  0  0  0
    2.7067   -1.8221    3.2208 C   0  0  0  0  0  0  0  0  0  0  0  0
    3.1819    0.6813   -0.9893 C   0  0  0  0  0  0  0  0  0  0  0  0
    2.6244    1.3687   -2.0764 C   0  0  0  0  0  0  0  0  0  0  0  0
    3.4229    2.1251   -2.9476 C   0  0  0  0  0  0  0  0  0  0  0  0
    2.8538    2.8809   -4.0849 C   0  0  0  0  0  0  0  0  0  0  0  0
    1.5835    3.4852   -4.0037 C   0  0  0  0  0  0  0  0  0  0  0  0
    1.0481    4.2106   -5.0761 C   0  0  0  0  0  0  0  0  0  0  0  0
    1.7730    4.3566   -6.2551 C   0  0  0  0  0  0  0  0  0  0  0  0
    3.0293    3.7706   -6.3639 C   0  0  0  0  0  0  0  0  0  0  0  0
    3.5512    3.0429   -5.2953 C   0  0  0  0  0  0  0  0  0  0  0  0
    4.7589    2.4812   -5.4633 F   0  0  0  0  0  0  0  0  0  0  0  0
    4.7916    2.1253   -2.6569 C   0  0  0  0  0  0  0  0  0  0  0  0
    5.3787    1.4652   -1.6266 N   0  0  0  0  0  0  0  0  0  0  0  0
    4.5540    0.7680   -0.8302 C   0  0  0  0  0  0  0  0  0  0  0  0
    5.2289    0.1478    0.1732 O   0  0  0  0  0  0  0  0  0  0  0  0
    3.8651   -0.4885    1.1893 H   0  0  0  0  0  0  0  0  0  0  0  0
   -1.4975   -2.0891    1.5535 H   0  0  0  0  0  0  0  0  0  0  0  0
   -3.7212   -3.0542    2.0428 H   0  0  0  0  0  0  0  0  0  0  0  0
   -2.3229   -4.4448    5.8508 H   0  0  0  0  0  0  0  0  0  0  0  0
   -0.0680   -3.5075    5.3971 H   0  0  0  0  0  0  0  0  0  0  0  0
    3.7232   -1.8155    3.5880 H   0  0  0  0  0  0  0  0  0  0  0  0
    1.5478    1.3026   -2.2393 H   0  0  0  0  0  0  0  0  0  0  0  0
    0.9882    3.4117   -3.0946 H   0  0  0  0  0  0  0  0  0  0  0  0
    0.0631    4.6637   -4.9850 H   0  0  0  0  0  0  0  0  0  0  0  0
    1.3599    4.9228   -7.0859 H   0  0  0  0  0  0  0  0  0  0  0  0
    3.6109    3.8712   -7.2749 H   0  0  0  0  0  0  0  0  0  0  0  0
    5.4959    2.6932   -3.2634 H   0  0  0  0  0  0  0  0  0  0  0  0
    6.1400    0.4082   -0.0725 H   0  0  0  0  0  0  0  0  0  0  0  0
  1  2  2  0  0  0  0
  2  3  1  0  0  0  0
  2 16  1  0  0  0  0
  3  4  1  0  0  0  0
  3 30  1  0  0  0  0
  4  5  2  0  0  0  0
  4 15  1  0  0  0  0
  5  6  1  0  0  0  0
  6  7  1  0  0  0  0
  6 14  1  0  0  0  0
  7  8  2  0  0  0  0
  7 13  1  0  0  0  0
  8  9  1  0  0  0  0
  8 31  1  0  0  0  0
  9 10  2  0  0  0  0
  9 32  1  0  0  0  0
 10 11  1  0  0  0  0
 10 12  1  0  0  0  0
 12 13  2  0  0  0  0
 12 33  1  0  0  0  0
 13 34  1  0  0  0  0
 14 15  2  0  0  0  0
 15 35  1  0  0  0  0
 16 17  2  0  0  0  0
 16 28  1  0  0  0  0
 17 18  1  0  0  0  0
 17 36  1  0  0  0  0
 18 19  1  0  0  0  0
 18 26  2  0  0  0  0
 19 20  2  0  0  0  0
 19 24  1  0  0  0  0
 20 21  1  0  0  0  0
 20 37  1  0  0  0  0
 21 22  2  0  0  0  0
 21 38  1  0  0  0  0
 22 23  1  0  0  0  0
 22 39  1  0  0  0  0
 23 24  2  0  0  0  0
 23 40  1  0  0  0  0
 24 25  1  0  0  0  0
 26 27  1  0  0  0  0
 26 41  1  0  0  0  0
 27 28  2  0  0  0  0
 28 29  1  0  0  0  0
 29 42  1  0  0  0  0
M  END
$$$$
