
 OpenBabel01122422403D

 53 56  0  0  0  0  0  0  0  0999 V2000
    0.9683    1.0823   -1.0980 C   0  0  0  0  0  0  0  0  0  0  0  0
    2.4204    0.9772   -1.2085 N   0  0  0  0  0  0  0  0  0  0  0  0
    3.0755    1.0590   -2.5254 C   0  0  0  0  0  0  0  0  0  0  0  0
    2.2261    0.8084   -3.7676 C   0  0  0  0  0  0  0  0  0  0  0  0
    1.4177    1.9467   -4.0479 O   0  0  0  0  0  0  0  0  0  0  0  0
    0.5515    1.7990   -5.0958 C   0  0  0  0  0  0  0  0  0  0  0  0
    0.0913    0.5805   -5.6032 C   0  0  0  0  0  0  0  0  0  0  0  0
   -0.7839    0.5536   -6.6874 C   0  0  0  0  0  0  0  0  0  0  0  0
   -1.2102    1.7500   -7.2650 C   0  0  0  0  0  0  0  0  0  0  0  0
   -0.7725    2.9682   -6.7439 C   0  0  0  0  0  0  0  0  0  0  0  0
   -1.2143    4.1992   -7.3306 C   0  0  0  0  0  0  0  0  0  0  0  0
   -1.5675    5.1901   -7.8109 N   0  0  0  0  0  0  0  0  0  0  0  0
    0.1000    2.9929   -5.6531 C   0  0  0  0  0  0  0  0  0  0  0  0
    3.1019    1.0339    0.0245 C   0  0  0  0  0  0  0  0  0  0  0  0
    2.4670    1.0315    1.0792 O   0  0  0  0  0  0  0  0  0  0  0  0
    4.5597    1.1266    0.0603 C   0  0  0  0  0  0  0  0  0  0  0  0
    5.4706    0.4610   -0.7299 C   0  0  0  0  0  0  0  0  0  0  0  0
    6.7316    0.8093   -0.3240 N   0  0  0  0  0  0  0  0  0  0  0  0
    7.9511    0.4195   -0.9462 C   0  0  0  0  0  0  0  0  0  0  0  0
    7.9450   -0.2370   -2.1886 C   0  0  0  0  0  0  0  0  0  0  0  0
    9.1430   -0.6150   -2.7967 C   0  0  0  0  0  0  0  0  0  0  0  0
   10.3536   -0.3469   -2.1679 C   0  0  0  0  0  0  0  0  0  0  0  0
   10.3699    0.3066   -0.9338 C   0  0  0  0  0  0  0  0  0  0  0  0
    9.1741    0.6964   -0.3242 C   0  0  0  0  0  0  0  0  0  0  0  0
    6.6911    1.5858    0.7805 N   0  0  0  0  0  0  0  0  0  0  0  0
    5.3840    1.8243    1.0066 C   0  0  0  0  0  0  0  0  0  0  0  0
    4.9759    2.7186    2.1006 C   0  0  0  0  0  0  0  0  0  0  0  0
    3.8499    3.5377    1.9844 C   0  0  0  0  0  0  0  0  0  0  0  0
    3.5108    4.3656    3.0417 C   0  0  0  0  0  0  0  0  0  0  0  0
    4.2223    4.4543    4.1829 N   0  0  0  0  0  0  0  0  0  0  0  0
    5.3159    3.6680    4.2726 C   0  0  0  0  0  0  0  0  0  0  0  0
    5.7265    2.7944    3.2770 C   0  0  0  0  0  0  0  0  0  0  0  0
    0.4511    1.0737   -2.0544 H   0  0  0  0  0  0  0  0  0  0  0  0
    0.7088    2.0050   -0.5681 H   0  0  0  0  0  0  0  0  0  0  0  0
    0.6064    0.2286   -0.5164 H   0  0  0  0  0  0  0  0  0  0  0  0
    3.7950    0.2453   -2.5532 H   0  0  0  0  0  0  0  0  0  0  0  0
    3.6088    2.0131   -2.5892 H   0  0  0  0  0  0  0  0  0  0  0  0
    1.6338   -0.0944   -3.5920 H   0  0  0  0  0  0  0  0  0  0  0  0
    2.8950    0.6405   -4.6222 H   0  0  0  0  0  0  0  0  0  0  0  0
    0.3796   -0.3732   -5.1751 H   0  0  0  0  0  0  0  0  0  0  0  0
   -1.1335   -0.3971   -7.0767 H   0  0  0  0  0  0  0  0  0  0  0  0
   -1.8865    1.7196   -8.1158 H   0  0  0  0  0  0  0  0  0  0  0  0
    0.4436    3.9401   -5.2386 H   0  0  0  0  0  0  0  0  0  0  0  0
    5.3377   -0.2599   -1.5149 H   0  0  0  0  0  0  0  0  0  0  0  0
    7.0277   -0.4520   -2.7312 H   0  0  0  0  0  0  0  0  0  0  0  0
    9.1286   -1.1155   -3.7622 H   0  0  0  0  0  0  0  0  0  0  0  0
   11.2868   -0.6437   -2.6394 H   0  0  0  0  0  0  0  0  0  0  0  0
   11.3185    0.5115   -0.4450 H   0  0  0  0  0  0  0  0  0  0  0  0
    9.2109    1.2009    0.6394 H   0  0  0  0  0  0  0  0  0  0  0  0
    3.2293    3.5436    1.0967 H   0  0  0  0  0  0  0  0  0  0  0  0
    2.6304    4.9998    2.9897 H   0  0  0  0  0  0  0  0  0  0  0  0
    5.8750    3.7635    5.1989 H   0  0  0  0  0  0  0  0  0  0  0  0
    6.6151    2.1887    3.4201 H   0  0  0  0  0  0  0  0  0  0  0  0
  1  2  1  0  0  0  0
  1 33  1  0  0  0  0
  1 34  1  0  0  0  0
  1 35  1  0  0  0  0
  2  3  1  0  0  0  0
  2 14  1  0  0  0  0
  3  4  1  0  0  0  0
  3 36  1  0  0  0  0
  3 37  1  0  0  0  0
  4  5  1  0  0  0  0
  4 38  1  0  0  0  0
  4 39  1  0  0  0  0
  5  6  1  0  0  0  0
  6  7  2  0  0  0  0
  6 13  1  0  0  0  0
  7  8  1  0  0  0  0
  7 40  1  0  0  0  0
  8  9  2  0  0  0  0
  8 41  1  0  0  0  0
  9 10  1  0  0  0  0
  9 42  1  0  0  0  0
 10 11  1  0  0  0  0
 10 13  2  0  0  0  0
 11 12  3  0  0  0  0
 13 43  1  0  0  0  0
 14 15  2  0  0  0  0
 14 16  1  0  0  0  0
 16 17  2  0  0  0  0
 16 26  1  0  0  0  0
 17 18  1  0  0  0  0
 17 44  1  0  0  0  0
 18 19  1  0  0  0  0
 18 25  1  0  0  0  0
 19 20  2  0  0  0  0
 19 24  1  0  0  0  0
 20 21  1  0  0  0  0
 20 45  1  0  0  0  0
 21 22  2  0  0  0  0
 21 46  1  0  0  0  0
 22 23  1  0  0  0  0
 22 47  1  0  0  0  0
 23 24  2  0  0  0  0
 23 48  1  0  0  0  0
 24 49  1  0  0  0  0
 25 26  2  0  0  0  0
 26 27  1  0  0  0  0
 27 28  2  0  0  0  0
 27 32  1  0  0  0  0
 28 29  1  0  0  0  0
 28 50  1  0  0  0  0
 29 30  2  0  0  0  0
 29 51  1  0  0  0  0
 30 31  1  0  0  0  0
 31 32  2  0  0  0  0
 31 52  1  0  0  0  0
 32 53  1  0  0  0  0
M  END
$$$$
