
 OpenBabel01122422353D

 41 44  0  0  0  0  0  0  0  0999 V2000
    2.7571   -0.1201   -1.2047 O   0  0  0  0  0  0  0  0  0  0  0  0
    2.2530   -0.2796   -0.1041 C   0  0  0  0  0  0  0  0  0  0  0  0
    0.8665   -0.8350   -0.0870 C   0  0  0  0  0  0  0  0  0  0  0  0
    0.4829   -1.6529   -1.1712 C   0  0  0  0  0  0  0  0  0  0  0  0
   -0.7332   -2.3410   -1.1510 C   0  0  0  0  0  0  0  0  0  0  0  0
   -1.5674   -2.2101   -0.0489 C   0  0  0  0  0  0  0  0  0  0  0  0
   -2.7006   -2.9223    0.0075 F   0  0  0  0  0  0  0  0  0  0  0  0
   -1.2210   -1.3599    0.9964 C   0  0  0  0  0  0  0  0  0  0  0  0
   -2.0208   -1.2514    2.0658 F   0  0  0  0  0  0  0  0  0  0  0  0
   -0.0244   -0.6455    0.9738 C   0  0  0  0  0  0  0  0  0  0  0  0
    3.0720   -0.1476    1.1576 C   0  0  0  0  0  0  0  0  0  0  0  0
    2.7925   -1.0996    2.1717 C   0  0  0  0  0  0  0  0  0  0  0  0
    3.5036   -1.1442    3.3677 C   0  0  0  0  0  0  0  0  0  0  0  0
    4.5929   -0.3141    3.5326 C   0  0  0  0  0  0  0  0  0  0  0  0
    4.9392    0.5737    2.5143 C   0  0  0  0  0  0  0  0  0  0  0  0
    4.1545    0.7474    1.3535 C   0  0  0  0  0  0  0  0  0  0  0  0
    4.5828    1.8349    0.3973 C   0  0  0  0  0  0  0  0  0  0  0  0
    4.4964    1.6704   -0.8137 O   0  0  0  0  0  0  0  0  0  0  0  0
    5.1149    3.0331    0.8744 N   0  0  0  0  0  0  0  0  0  0  0  0
    5.2289    3.5371    2.2457 C   0  0  0  0  0  0  0  0  0  0  0  0
    5.5126    4.9901    2.0829 C   0  0  0  0  0  0  0  0  0  0  0  0
    5.6313    5.9744    3.0425 C   0  0  0  0  0  0  0  0  0  0  0  0
    5.9277    7.2569    2.5998 C   0  0  0  0  0  0  0  0  0  0  0  0
    6.0429    8.2587    3.4811 F   0  0  0  0  0  0  0  0  0  0  0  0
    6.1068    7.4890    1.2376 C   0  0  0  0  0  0  0  0  0  0  0  0
    6.0133    6.5286    0.2804 N   0  0  0  0  0  0  0  0  0  0  0  0
    5.7137    5.2992    0.7408 C   0  0  0  0  0  0  0  0  0  0  0  0
    5.5464    4.0552   -0.0988 C   0  0  0  0  0  0  0  0  0  0  0  0
    1.1506   -1.7802   -2.0250 H   0  0  0  0  0  0  0  0  0  0  0  0
   -1.0144   -2.9956   -1.9704 H   0  0  0  0  0  0  0  0  0  0  0  0
    0.2121    0.0029    1.8095 H   0  0  0  0  0  0  0  0  0  0  0  0
    2.0252   -1.8594    2.0398 H   0  0  0  0  0  0  0  0  0  0  0  0
    3.2381   -1.8657    4.1362 H   0  0  0  0  0  0  0  0  0  0  0  0
    5.2005   -0.3794    4.4316 H   0  0  0  0  0  0  0  0  0  0  0  0
    5.8758    1.1052    2.6317 H   0  0  0  0  0  0  0  0  0  0  0  0
    6.1070    3.0874    2.7191 H   0  0  0  0  0  0  0  0  0  0  0  0
    4.3157    3.3402    2.8085 H   0  0  0  0  0  0  0  0  0  0  0  0
    5.5023    5.7732    4.0999 H   0  0  0  0  0  0  0  0  0  0  0  0
    6.3362    8.4876    0.8796 H   0  0  0  0  0  0  0  0  0  0  0  0
    6.5060    3.7441   -0.5262 H   0  0  0  0  0  0  0  0  0  0  0  0
    4.7981    4.1930   -0.8833 H   0  0  0  0  0  0  0  0  0  0  0  0
  1  2  2  0  0  0  0
  2  3  1  0  0  0  0
  2 11  1  0  0  0  0
  3  4  2  0  0  0  0
  3 10  1  0  0  0  0
  4  5  1  0  0  0  0
  4 29  1  0  0  0  0
  5  6  2  0  0  0  0
  5 30  1  0  0  0  0
  6  7  1  0  0  0  0
  6  8  1  0  0  0  0
  8  9  1  0  0  0  0
  8 10  2  0  0  0  0
 10 31  1  0  0  0  0
 11 12  2  0  0  0  0
 11 16  1  0  0  0  0
 12 13  1  0  0  0  0
 12 32  1  0  0  0  0
 13 14  2  0  0  0  0
 13 33  1  0  0  0  0
 14 15  1  0  0  0  0
 14 34  1  0  0  0  0
 15 16  2  0  0  0  0
 15 35  1  0  0  0  0
 16 17  1  0  0  0  0
 17 18  2  0  0  0  0
 17 19  1  0  0  0  0
 19 20  1  0  0  0  0
 19 28  1  0  0  0  0
 20 21  1  0  0  0  0
 20 36  1  0  0  0  0
 20 37  1  0  0  0  0
 21 22  2  0  0  0  0
 21 27  1  0  0  0  0
 22 23  1  0  0  0  0
 22 38  1  0  0  0  0
 23 24  1  0  0  0  0
 23 25  2  0  0  0  0
 25 26  1  0  0  0  0
 25 39  1  0  0  0  0
 26 27  2  0  0  0  0
 27 28  1  0  0  0  0
 28 40  1  0  0  0  0
 28 41  1  0  0  0  0
M  END
$$$$
