
 OpenBabel01122422403D

 45 48  0  0  0  0  0  0  0  0999 V2000
    1.3173   -0.0526   -0.1101 O   0  0  0  0  0  0  0  0  0  0  0  0
    2.5460    0.0149   -0.1490 C   0  0  0  0  0  0  0  0  0  0  0  0
    3.3200   -0.9319    0.4892 N   0  0  0  0  0  0  0  0  0  0  0  0
    2.6106   -2.0333    1.1109 C   0  0  0  0  0  0  0  0  0  0  0  0
    3.4984   -3.0273    1.7990 C   0  0  0  0  0  0  0  0  0  0  0  0
    3.9569   -2.7712    3.0965 C   0  0  0  0  0  0  0  0  0  0  0  0
    4.7358   -3.7112    3.7719 C   0  0  0  0  0  0  0  0  0  0  0  0
    5.0173   -4.9442    3.1781 C   0  0  0  0  0  0  0  0  0  0  0  0
    5.7503   -5.9498    3.7679 O   0  0  0  0  0  0  0  0  0  0  0  0
    5.7299   -6.1154    5.1349 C   0  0  0  0  0  0  0  0  0  0  0  0
    4.6124   -5.8934    5.9406 C   0  0  0  0  0  0  0  0  0  0  0  0
    4.7141   -6.0689    7.3160 C   0  0  0  0  0  0  0  0  0  0  0  0
    3.6612   -5.7973    8.0931 F   0  0  0  0  0  0  0  0  0  0  0  0
    5.8908   -6.5110    7.8984 C   0  0  0  0  0  0  0  0  0  0  0  0
    6.9948   -6.7944    7.0942 C   0  0  0  0  0  0  0  0  0  0  0  0
    6.9102   -6.5989    5.7130 C   0  0  0  0  0  0  0  0  0  0  0  0
    4.5951   -5.1886    1.8706 C   0  0  0  0  0  0  0  0  0  0  0  0
    3.8440   -4.2360    1.1812 C   0  0  0  0  0  0  0  0  0  0  0  0
    3.1672    1.1047   -0.9559 C   0  0  0  0  0  0  0  0  0  0  0  0
    2.2494    1.9159   -1.6576 C   0  0  0  0  0  0  0  0  0  0  0  0
    2.6686    2.8659   -2.5821 C   0  0  0  0  0  0  0  0  0  0  0  0
    4.0288    3.0558   -2.7563 C   0  0  0  0  0  0  0  0  0  0  0  0
    4.5199    3.9719   -3.7803 C   0  0  0  0  0  0  0  0  0  0  0  0
    5.7386    4.3982   -3.8251 N   0  0  0  0  0  0  0  0  0  0  0  0
    6.6005    3.9172   -2.8772 N   0  0  0  0  0  0  0  0  0  0  0  0
    6.3557    2.8555   -2.0235 C   0  0  0  0  0  0  0  0  0  0  0  0
    7.2146    2.3652   -1.3016 O   0  0  0  0  0  0  0  0  0  0  0  0
    4.9552    2.3834   -1.9650 C   0  0  0  0  0  0  0  0  0  0  0  0
    4.5377    1.3604   -1.0895 C   0  0  0  0  0  0  0  0  0  0  0  0
    4.3299   -0.9241    0.4866 H   0  0  0  0  0  0  0  0  0  0  0  0
    2.0069   -2.5336    0.3419 H   0  0  0  0  0  0  0  0  0  0  0  0
    1.8959   -1.6198    1.8350 H   0  0  0  0  0  0  0  0  0  0  0  0
    3.6881   -1.8437    3.5979 H   0  0  0  0  0  0  0  0  0  0  0  0
    5.0920   -3.4718    4.7688 H   0  0  0  0  0  0  0  0  0  0  0  0
    3.6627   -5.5725    5.5254 H   0  0  0  0  0  0  0  0  0  0  0  0
    5.9445   -6.6442    8.9680 H   0  0  0  0  0  0  0  0  0  0  0  0
    7.9168   -7.1678    7.5356 H   0  0  0  0  0  0  0  0  0  0  0  0
    7.7705   -6.8138    5.0830 H   0  0  0  0  0  0  0  0  0  0  0  0
    4.8421   -6.1339    1.3906 H   0  0  0  0  0  0  0  0  0  0  0  0
    3.5045   -4.4565    0.1701 H   0  0  0  0  0  0  0  0  0  0  0  0
    1.1784    1.7875   -1.4994 H   0  0  0  0  0  0  0  0  0  0  0  0
    1.9350    3.4457   -3.1333 H   0  0  0  0  0  0  0  0  0  0  0  0
    3.8105    4.2966   -4.5624 H   0  0  0  0  0  0  0  0  0  0  0  0
    7.5366    4.3105   -2.8941 H   0  0  0  0  0  0  0  0  0  0  0  0
    5.2860    0.8067   -0.5297 H   0  0  0  0  0  0  0  0  0  0  0  0
  1  2  2  0  0  0  0
  2  3  1  0  0  0  0
  2 19  1  0  0  0  0
  3  4  1  0  0  0  0
  3 30  1  0  0  0  0
  4  5  1  0  0  0  0
  4 31  1  0  0  0  0
  4 32  1  0  0  0  0
  5  6  2  0  0  0  0
  5 18  1  0  0  0  0
  6  7  1  0  0  0  0
  6 33  1  0  0  0  0
  7  8  2  0  0  0  0
  7 34  1  0  0  0  0
  8  9  1  0  0  0  0
  8 17  1  0  0  0  0
  9 10  1  0  0  0  0
 10 11  2  0  0  0  0
 10 16  1  0  0  0  0
 11 12  1  0  0  0  0
 11 35  1  0  0  0  0
 12 13  1  0  0  0  0
 12 14  2  0  0  0  0
 14 15  1  0  0  0  0
 14 36  1  0  0  0  0
 15 16  2  0  0  0  0
 15 37  1  0  0  0  0
 16 38  1  0  0  0  0
 17 18  2  0  0  0  0
 17 39  1  0  0  0  0
 18 40  1  0  0  0  0
 19 20  2  0  0  0  0
 19 29  1  0  0  0  0
 20 21  1  0  0  0  0
 20 41  1  0  0  0  0
 21 22  2  0  0  0  0
 21 42  1  0  0  0  0
 22 23  1  0  0  0  0
 22 28  1  0  0  0  0
 23 24  2  0  0  0  0
 23 43  1  0  0  0  0
 24 25  1  0  0  0  0
 25 26  1  0  0  0  0
 25 44  1  0  0  0  0
 26 27  2  0  0  0  0
 26 28  1  0  0  0  0
 28 29  2  0  0  0  0
 29 45  1  0  0  0  0
M  END
$$$$
