
 OpenBabel01122422403D

 40 42  0  0  0  0  0  0  0  0999 V2000
    1.0875    0.0270    0.0401 N   0  0  0  0  0  0  0  0  0  0  0  0
    2.3485    0.0270    0.0401 C   0  0  0  0  0  0  0  0  0  0  0  0
    3.8685    0.0270    0.0401 C   0  0  0  0  0  0  0  0  0  0  0  0
    4.5417    1.2022    0.1892 C   0  0  0  0  0  0  0  0  0  0  0  0
    3.9008    2.4512    0.2937 N   0  0  0  0  0  0  0  0  0  0  0  0
    4.4679    3.7429    0.3636 C   0  0  0  0  0  0  0  0  0  0  0  0
    5.6736    3.9829    0.2960 O   0  0  0  0  0  0  0  0  0  0  0  0
    3.4227    4.8927    0.6000 C   0  0  0  0  0  0  0  0  0  0  0  0
    2.1507    4.3831    0.4886 F   0  0  0  0  0  0  0  0  0  0  0  0
    3.4989    5.2958    1.9102 F   0  0  0  0  0  0  0  0  0  0  0  0
    3.6125    6.0680   -0.3433 C   0  0  0  0  0  0  0  0  0  0  0  0
    3.8562    7.3743    0.1229 C   0  0  0  0  0  0  0  0  0  0  0  0
    3.9236    8.4384   -0.7797 C   0  0  0  0  0  0  0  0  0  0  0  0
    4.1323    9.6786   -0.3195 F   0  0  0  0  0  0  0  0  0  0  0  0
    3.7640    8.2372   -2.1472 C   0  0  0  0  0  0  0  0  0  0  0  0
    3.5462    6.9459   -2.6196 C   0  0  0  0  0  0  0  0  0  0  0  0
    3.4725    5.8849   -1.7193 C   0  0  0  0  0  0  0  0  0  0  0  0
    3.2339    4.6524   -2.1850 F   0  0  0  0  0  0  0  0  0  0  0  0
    5.9860    1.1246    0.2933 C   0  0  0  0  0  0  0  0  0  0  0  0
    6.6263   -0.0487    0.2449 C   0  0  0  0  0  0  0  0  0  0  0  0
    5.9512   -1.2495    0.1131 N   0  0  0  0  0  0  0  0  0  0  0  0
    6.6626   -2.4828    0.0382 C   0  0  0  0  0  0  0  0  0  0  0  0
    7.7570   -2.6094   -0.8269 C   0  0  0  0  0  0  0  0  0  0  0  0
    8.3806   -3.8484   -0.9894 C   0  0  0  0  0  0  0  0  0  0  0  0
    7.9456   -4.9549   -0.2575 C   0  0  0  0  0  0  0  0  0  0  0  0
    6.8899   -4.8196    0.6455 C   0  0  0  0  0  0  0  0  0  0  0  0
    6.2460   -3.5911    0.7857 C   0  0  0  0  0  0  0  0  0  0  0  0
    4.5518   -1.2890   -0.0035 C   0  0  0  0  0  0  0  0  0  0  0  0
    3.8731   -2.3013   -0.1687 O   0  0  0  0  0  0  0  0  0  0  0  0
    2.8788    2.4605    0.2963 H   0  0  0  0  0  0  0  0  0  0  0  0
    3.9744    7.5840    1.1824 H   0  0  0  0  0  0  0  0  0  0  0  0
    3.8030    9.0846   -2.8264 H   0  0  0  0  0  0  0  0  0  0  0  0
    3.4209    6.7608   -3.6797 H   0  0  0  0  0  0  0  0  0  0  0  0
    6.5849    2.0117    0.4567 H   0  0  0  0  0  0  0  0  0  0  0  0
    7.7060   -0.0889    0.3658 H   0  0  0  0  0  0  0  0  0  0  0  0
    8.0805   -1.7719   -1.4405 H   0  0  0  0  0  0  0  0  0  0  0  0
    9.1836   -3.9568   -1.7122 H   0  0  0  0  0  0  0  0  0  0  0  0
    8.4189   -5.9172   -0.3956 H   0  0  0  0  0  0  0  0  0  0  0  0
    6.5530   -5.6739    1.2238 H   0  0  0  0  0  0  0  0  0  0  0  0
    5.4191   -3.5082    1.4875 H   0  0  0  0  0  0  0  0  0  0  0  0
  1  2  3  0  0  0  0
  2  3  1  0  0  0  0
  3  4  2  0  0  0  0
  3 28  1  0  0  0  0
  4  5  1  0  0  0  0
  4 19  1  0  0  0  0
  5  6  1  0  0  0  0
  5 30  1  0  0  0  0
  6  7  2  0  0  0  0
  6  8  1  0  0  0  0
  8  9  1  0  0  0  0
  8 10  1  0  0  0  0
  8 11  1  0  0  0  0
 11 12  2  0  0  0  0
 11 17  1  0  0  0  0
 12 13  1  0  0  0  0
 12 31  1  0  0  0  0
 13 14  1  0  0  0  0
 13 15  2  0  0  0  0
 15 16  1  0  0  0  0
 15 32  1  0  0  0  0
 16 17  2  0  0  0  0
 16 33  1  0  0  0  0
 17 18  1  0  0  0  0
 19 20  2  0  0  0  0
 19 34  1  0  0  0  0
 20 21  1  0  0  0  0
 20 35  1  0  0  0  0
 21 22  1  0  0  0  0
 21 28  1  0  0  0  0
 22 23  2  0  0  0  0
 22 27  1  0  0  0  0
 23 24  1  0  0  0  0
 23 36  1  0  0  0  0
 24 25  2  0  0  0  0
 24 37  1  0  0  0  0
 25 26  1  0  0  0  0
 25 38  1  0  0  0  0
 26 27  2  0  0  0  0
 26 39  1  0  0  0  0
 27 40  1  0  0  0  0
 28 29  2  0  0  0  0
M  END
$$$$
