
 OpenBabel01122422403D

 46 49  0  0  0  0  0  0  0  0999 V2000
    1.3515   -0.1473   -0.2998 O   0  0  0  0  0  0  0  0  0  0  0  0
    2.5173   -0.5400   -0.3299 C   0  0  0  0  0  0  0  0  0  0  0  0
    3.1521   -1.2356    0.6914 N   0  0  0  0  0  0  0  0  0  0  0  0
    2.5686   -1.5514    1.9508 C   0  0  0  0  0  0  0  0  0  0  0  0
    1.1985   -1.4054    2.2241 C   0  0  0  0  0  0  0  0  0  0  0  0
    0.6729   -1.6745    3.4965 C   0  0  0  0  0  0  0  0  0  0  0  0
    1.5282   -2.1004    4.5044 C   0  0  0  0  0  0  0  0  0  0  0  0
    1.0316   -2.3440    5.7268 F   0  0  0  0  0  0  0  0  0  0  0  0
    2.8808   -2.2723    4.2599 C   0  0  0  0  0  0  0  0  0  0  0  0
    3.4016   -2.0105    2.9803 C   0  0  0  0  0  0  0  0  0  0  0  0
    3.3279   -0.1702   -1.5383 C   0  0  0  0  0  0  0  0  0  0  0  0
    2.8207    0.8620   -2.3269 C   0  0  0  0  0  0  0  0  0  0  0  0
    3.5159    1.2442   -3.4573 C   0  0  0  0  0  0  0  0  0  0  0  0
    4.6935    0.5801   -3.7592 C   0  0  0  0  0  0  0  0  0  0  0  0
    5.1410   -0.4655   -2.9435 C   0  0  0  0  0  0  0  0  0  0  0  0
    6.2689   -1.1366   -3.3978 N   0  0  0  0  0  0  0  0  0  0  0  0
    6.5272   -2.5104   -3.0359 C   0  0  0  0  0  0  0  0  0  0  0  0
    7.3199   -2.7217   -1.7689 C   0  0  0  0  0  0  0  0  0  0  0  0
    7.6834   -4.0404   -1.4295 C   0  0  0  0  0  0  0  0  0  0  0  0
    8.4210   -4.3079   -0.2768 C   0  0  0  0  0  0  0  0  0  0  0  0
    8.9124   -3.2405    0.4702 C   0  0  0  0  0  0  0  0  0  0  0  0
    9.8110   -3.4762    1.6256 C   0  0  0  0  0  0  0  0  0  0  0  0
    9.8988   -4.5679    2.1736 O   0  0  0  0  0  0  0  0  0  0  0  0
   10.6553   -2.3348    2.0538 C   0  0  0  0  0  0  0  0  0  0  0  0
   10.3653   -1.1238    1.5654 C   0  0  0  0  0  0  0  0  0  0  0  0
    9.3034   -0.8488    0.7375 N   0  0  0  0  0  0  0  0  0  0  0  0
    8.6605   -1.9160    0.0811 C   0  0  0  0  0  0  0  0  0  0  0  0
    7.7626   -1.6698   -0.9569 C   0  0  0  0  0  0  0  0  0  0  0  0
    4.4794   -0.8475   -1.8217 N   0  0  0  0  0  0  0  0  0  0  0  0
    4.1381   -1.4386    0.5501 H   0  0  0  0  0  0  0  0  0  0  0  0
    0.4904   -1.0854    1.4683 H   0  0  0  0  0  0  0  0  0  0  0  0
   -0.3757   -1.5549    3.6948 H   0  0  0  0  0  0  0  0  0  0  0  0
    3.5253   -2.6059    5.0675 H   0  0  0  0  0  0  0  0  0  0  0  0
    4.4681   -2.1397    2.8202 H   0  0  0  0  0  0  0  0  0  0  0  0
    1.8882    1.3556   -2.0676 H   0  0  0  0  0  0  0  0  0  0  0  0
    3.1338    2.0266   -4.1054 H   0  0  0  0  0  0  0  0  0  0  0  0
    5.2342    0.8373   -4.6657 H   0  0  0  0  0  0  0  0  0  0  0  0
    7.0729   -0.5541   -3.5949 H   0  0  0  0  0  0  0  0  0  0  0  0
    7.1361   -2.9217   -3.8526 H   0  0  0  0  0  0  0  0  0  0  0  0
    5.5994   -3.0929   -3.0125 H   0  0  0  0  0  0  0  0  0  0  0  0
    7.3986   -4.8699   -2.0755 H   0  0  0  0  0  0  0  0  0  0  0  0
    8.6642   -5.3314   -0.0019 H   0  0  0  0  0  0  0  0  0  0  0  0
   11.4835   -2.5370    2.7172 H   0  0  0  0  0  0  0  0  0  0  0  0
   10.9829   -0.2603    1.7951 H   0  0  0  0  0  0  0  0  0  0  0  0
    9.3748    0.0061    0.1923 H   0  0  0  0  0  0  0  0  0  0  0  0
    7.4527   -0.6494   -1.1616 H   0  0  0  0  0  0  0  0  0  0  0  0
  1  2  2  0  0  0  0
  2  3  1  0  0  0  0
  2 11  1  0  0  0  0
  3  4  1  0  0  0  0
  3 30  1  0  0  0  0
  4  5  2  0  0  0  0
  4 10  1  0  0  0  0
  5  6  1  0  0  0  0
  5 31  1  0  0  0  0
  6  7  2  0  0  0  0
  6 32  1  0  0  0  0
  7  8  1  0  0  0  0
  7  9  1  0  0  0  0
  9 10  2  0  0  0  0
  9 33  1  0  0  0  0
 10 34  1  0  0  0  0
 11 12  2  0  0  0  0
 11 29  1  0  0  0  0
 12 13  1  0  0  0  0
 12 35  1  0  0  0  0
 13 14  2  0  0  0  0
 13 36  1  0  0  0  0
 14 15  1  0  0  0  0
 14 37  1  0  0  0  0
 15 16  1  0  0  0  0
 15 29  2  0  0  0  0
 16 17  1  0  0  0  0
 16 38  1  0  0  0  0
 17 18  1  0  0  0  0
 17 39  1  0  0  0  0
 17 40  1  0  0  0  0
 18 19  2  0  0  0  0
 18 28  1  0  0  0  0
 19 20  1  0  0  0  0
 19 41  1  0  0  0  0
 20 21  2  0  0  0  0
 20 42  1  0  0  0  0
 21 22  1  0  0  0  0
 21 27  1  0  0  0  0
 22 23  2  0  0  0  0
 22 24  1  0  0  0  0
 24 25  2  0  0  0  0
 24 43  1  0  0  0  0
 25 26  1  0  0  0  0
 25 44  1  0  0  0  0
 26 27  1  0  0  0  0
 26 45  1  0  0  0  0
 27 28  2  0  0  0  0
 28 46  1  0  0  0  0
M  END
$$$$
