
 OpenBabel01122422403D

 54 57  0  0  0  0  0  0  0  0999 V2000
    1.1542   -0.2456    0.0347 O   0  0  0  0  0  0  0  0  0  0  0  0
    2.3610    0.0127    0.0472 C   0  0  0  0  0  0  0  0  0  0  0  0
    3.0879    0.3385   -1.2558 C   0  0  0  0  0  0  0  0  0  0  0  0
    3.1052    1.7395   -1.5037 O   0  0  0  0  0  0  0  0  0  0  0  0
    3.6936    2.1007   -2.6883 C   0  0  0  0  0  0  0  0  0  0  0  0
    4.8197    1.4644   -3.2243 C   0  0  0  0  0  0  0  0  0  0  0  0
    5.4138    1.9455   -4.3901 C   0  0  0  0  0  0  0  0  0  0  0  0
    4.8793    3.0566   -5.0344 C   0  0  0  0  0  0  0  0  0  0  0  0
    3.7170    3.6650   -4.5472 C   0  0  0  0  0  0  0  0  0  0  0  0
    3.1267    4.7568   -5.1509 O   0  0  0  0  0  0  0  0  0  0  0  0
    3.1009    4.8002   -6.5445 C   0  0  0  0  0  0  0  0  0  0  0  0
    3.0049    6.0588   -7.1249 C   0  0  0  0  0  0  0  0  0  0  0  0
    2.9989    6.1430   -8.5152 C   0  0  0  0  0  0  0  0  0  0  0  0
    3.0839    4.9797   -9.2723 C   0  0  0  0  0  0  0  0  0  0  0  0
    3.1536    3.7687   -8.6049 C   0  0  0  0  0  0  0  0  0  0  0  0
    3.1492    3.6518   -7.2614 N   0  0  0  0  0  0  0  0  0  0  0  0
    3.1542    3.2098   -3.3502 C   0  0  0  0  0  0  0  0  0  0  0  0
    3.1041   -0.0454    1.2181 N   0  0  0  0  0  0  0  0  0  0  0  0
    2.4946   -0.6199    2.4121 C   0  0  0  0  0  0  0  0  0  0  0  0
    2.5835    0.3307    3.6049 C   0  0  0  0  0  0  0  0  0  0  0  0
    3.9535    0.8182    3.8276 N   0  0  0  0  0  0  0  0  0  0  0  0
    4.6414    0.9040    5.0472 C   0  0  0  0  0  0  0  0  0  0  0  0
    5.7697    1.3884    5.1161 O   0  0  0  0  0  0  0  0  0  0  0  0
    4.0496    0.3704    6.2989 C   0  0  0  0  0  0  0  0  0  0  0  0
    2.7201    0.6128    6.6548 C   0  0  0  0  0  0  0  0  0  0  0  0
    2.1805   -0.0106    7.7756 C   0  0  0  0  0  0  0  0  0  0  0  0
    0.8748    0.1301    8.0352 F   0  0  0  0  0  0  0  0  0  0  0  0
    2.9649   -0.7912    8.6157 C   0  0  0  0  0  0  0  0  0  0  0  0
    4.3195   -0.9450    8.3307 C   0  0  0  0  0  0  0  0  0  0  0  0
    4.8532   -0.3752    7.1720 C   0  0  0  0  0  0  0  0  0  0  0  0
    6.1512   -0.5908    6.9144 F   0  0  0  0  0  0  0  0  0  0  0  0
    4.5890    1.3794    2.6201 C   0  0  0  0  0  0  0  0  0  0  0  0
    4.4833    0.4283    1.4097 C   0  0  0  0  0  0  0  0  0  0  0  0
    2.5521   -0.1793   -2.0632 H   0  0  0  0  0  0  0  0  0  0  0  0
    4.0909   -0.0911   -1.1950 H   0  0  0  0  0  0  0  0  0  0  0  0
    5.2796    0.6092   -2.7441 H   0  0  0  0  0  0  0  0  0  0  0  0
    6.2954    1.4568   -4.7962 H   0  0  0  0  0  0  0  0  0  0  0  0
    5.3656    3.4279   -5.9328 H   0  0  0  0  0  0  0  0  0  0  0  0
    2.9501    6.9480   -6.5107 H   0  0  0  0  0  0  0  0  0  0  0  0
    2.9338    7.1104   -9.0056 H   0  0  0  0  0  0  0  0  0  0  0  0
    3.0974    5.0122  -10.3559 H   0  0  0  0  0  0  0  0  0  0  0  0
    3.2258    2.8305   -9.1471 H   0  0  0  0  0  0  0  0  0  0  0  0
    2.2791    3.7102   -2.9397 H   0  0  0  0  0  0  0  0  0  0  0  0
    3.0445   -1.5413    2.6389 H   0  0  0  0  0  0  0  0  0  0  0  0
    1.4500   -0.8985    2.2440 H   0  0  0  0  0  0  0  0  0  0  0  0
    2.1902   -0.2054    4.4643 H   0  0  0  0  0  0  0  0  0  0  0  0
    1.9617    1.2173    3.4295 H   0  0  0  0  0  0  0  0  0  0  0  0
    2.0806    1.2564    6.0610 H   0  0  0  0  0  0  0  0  0  0  0  0
    2.5194   -1.2633    9.4859 H   0  0  0  0  0  0  0  0  0  0  0  0
    4.9632   -1.5182    8.9919 H   0  0  0  0  0  0  0  0  0  0  0  0
    5.6413    1.6239    2.7974 H   0  0  0  0  0  0  0  0  0  0  0  0
    4.0658    2.3167    2.3962 H   0  0  0  0  0  0  0  0  0  0  0  0
    5.0997   -0.4625    1.5862 H   0  0  0  0  0  0  0  0  0  0  0  0
    4.8629    0.9319    0.5190 H   0  0  0  0  0  0  0  0  0  0  0  0
  1  2  2  0  0  0  0
  2  3  1  0  0  0  0
  2 18  1  0  0  0  0
  3  4  1  0  0  0  0
  3 34  1  0  0  0  0
  3 35  1  0  0  0  0
  4  5  1  0  0  0  0
  5  6  2  0  0  0  0
  5 17  1  0  0  0  0
  6  7  1  0  0  0  0
  6 36  1  0  0  0  0
  7  8  2  0  0  0  0
  7 37  1  0  0  0  0
  8  9  1  0  0  0  0
  8 38  1  0  0  0  0
  9 10  1  0  0  0  0
  9 17  2  0  0  0  0
 10 11  1  0  0  0  0
 11 12  2  0  0  0  0
 11 16  1  0  0  0  0
 12 13  1  0  0  0  0
 12 39  1  0  0  0  0
 13 14  2  0  0  0  0
 13 40  1  0  0  0  0
 14 15  1  0  0  0  0
 14 41  1  0  0  0  0
 15 16  2  0  0  0  0
 15 42  1  0  0  0  0
 17 43  1  0  0  0  0
 18 19  1  0  0  0  0
 18 33  1  0  0  0  0
 19 20  1  0  0  0  0
 19 44  1  0  0  0  0
 19 45  1  0  0  0  0
 20 21  1  0  0  0  0
 20 46  1  0  0  0  0
 20 47  1  0  0  0  0
 21 22  1  0  0  0  0
 21 32  1  0  0  0  0
 22 23  2  0  0  0  0
 22 24  1  0  0  0  0
 24 25  2  0  0  0  0
 24 30  1  0  0  0  0
 25 26  1  0  0  0  0
 25 48  1  0  0  0  0
 26 27  1  0  0  0  0
 26 28  2  0  0  0  0
 28 29  1  0  0  0  0
 28 49  1  0  0  0  0
 29 30  2  0  0  0  0
 29 50  1  0  0  0  0
 30 31  1  0  0  0  0
 32 33  1  0  0  0  0
 32 51  1  0  0  0  0
 32 52  1  0  0  0  0
 33 53  1  0  0  0  0
 33 54  1  0  0  0  0
M  END
$$$$
