
 OpenBabel01122422403D

 46 49  0  0  0  0  0  0  0  0999 V2000
    1.1887   -0.3169   -0.3922 O   0  0  0  0  0  0  0  0  0  0  0  0
    2.3073   -0.0532    0.0338 C   0  0  0  0  0  0  0  0  0  0  0  0
    2.9009    1.1997    0.0572 N   0  0  0  0  0  0  0  0  0  0  0  0
    2.2992    2.3972   -0.3804 C   0  0  0  0  0  0  0  0  0  0  0  0
    0.9187    2.5345   -0.5675 C   0  0  0  0  0  0  0  0  0  0  0  0
    0.3755    3.7238   -1.0580 C   0  0  0  0  0  0  0  0  0  0  0  0
    1.2168    4.7836   -1.3579 C   0  0  0  0  0  0  0  0  0  0  0  0
    0.7024    5.9155   -1.8555 F   0  0  0  0  0  0  0  0  0  0  0  0
    2.5877    4.6846   -1.1464 C   0  0  0  0  0  0  0  0  0  0  0  0
    3.1295    3.4964   -0.6415 C   0  0  0  0  0  0  0  0  0  0  0  0
    3.1567   -1.1690    0.5593 C   0  0  0  0  0  0  0  0  0  0  0  0
    2.6638   -2.4657    0.4590 C   0  0  0  0  0  0  0  0  0  0  0  0
    3.3952   -3.4889    1.0333 C   0  0  0  0  0  0  0  0  0  0  0  0
    4.5757   -3.1724    1.6925 C   0  0  0  0  0  0  0  0  0  0  0  0
    5.0339   -1.8530    1.7132 C   0  0  0  0  0  0  0  0  0  0  0  0
    6.2562   -1.6250    2.3545 N   0  0  0  0  0  0  0  0  0  0  0  0
    6.9449   -0.3918    2.0269 C   0  0  0  0  0  0  0  0  0  0  0  0
    8.3351   -0.4149    2.6281 C   0  0  0  0  0  0  0  0  0  0  0  0
    8.7384    0.5925    3.4219 C   0  0  0  0  0  0  0  0  0  0  0  0
    9.9787    0.6320    3.9959 N   0  0  0  0  0  0  0  0  0  0  0  0
   10.9268   -0.3532    3.8683 C   0  0  0  0  0  0  0  0  0  0  0  0
   12.0292   -0.2581    4.3960 O   0  0  0  0  0  0  0  0  0  0  0  0
   10.5378   -1.5283    3.0526 C   0  0  0  0  0  0  0  0  0  0  0  0
   11.4193   -2.6161    2.9711 C   0  0  0  0  0  0  0  0  0  0  0  0
   11.0852   -3.7204    2.1945 C   0  0  0  0  0  0  0  0  0  0  0  0
    9.8998   -3.7120    1.4648 C   0  0  0  0  0  0  0  0  0  0  0  0
    9.0216   -2.6222    1.5479 C   0  0  0  0  0  0  0  0  0  0  0  0
    9.2975   -1.5285    2.3836 C   0  0  0  0  0  0  0  0  0  0  0  0
    4.3472   -0.8406    1.1429 N   0  0  0  0  0  0  0  0  0  0  0  0
    3.8822    1.2056    0.3142 H   0  0  0  0  0  0  0  0  0  0  0  0
    0.2316    1.7286   -0.3274 H   0  0  0  0  0  0  0  0  0  0  0  0
   -0.6950    3.8172   -1.2110 H   0  0  0  0  0  0  0  0  0  0  0  0
    3.2255    5.5273   -1.3900 H   0  0  0  0  0  0  0  0  0  0  0  0
    4.2039    3.4296   -0.4980 H   0  0  0  0  0  0  0  0  0  0  0  0
    1.7247   -2.6691   -0.0467 H   0  0  0  0  0  0  0  0  0  0  0  0
    3.0486   -4.5154    0.9733 H   0  0  0  0  0  0  0  0  0  0  0  0
    5.1650   -3.9623    2.1525 H   0  0  0  0  0  0  0  0  0  0  0  0
    6.1667   -1.7934    3.3546 H   0  0  0  0  0  0  0  0  0  0  0  0
    6.3716    0.4598    2.4150 H   0  0  0  0  0  0  0  0  0  0  0  0
    7.0318   -0.2697    0.9409 H   0  0  0  0  0  0  0  0  0  0  0  0
    8.0990    1.4414    3.6522 H   0  0  0  0  0  0  0  0  0  0  0  0
   10.2540    1.4223    4.5682 H   0  0  0  0  0  0  0  0  0  0  0  0
   12.3562   -2.6047    3.5243 H   0  0  0  0  0  0  0  0  0  0  0  0
   11.7502   -4.5795    2.1538 H   0  0  0  0  0  0  0  0  0  0  0  0
    9.6462   -4.5636    0.8373 H   0  0  0  0  0  0  0  0  0  0  0  0
    8.1077   -2.6650    0.9606 H   0  0  0  0  0  0  0  0  0  0  0  0
  1  2  2  0  0  0  0
  2  3  1  0  0  0  0
  2 11  1  0  0  0  0
  3  4  1  0  0  0  0
  3 30  1  0  0  0  0
  4  5  2  0  0  0  0
  4 10  1  0  0  0  0
  5  6  1  0  0  0  0
  5 31  1  0  0  0  0
  6  7  2  0  0  0  0
  6 32  1  0  0  0  0
  7  8  1  0  0  0  0
  7  9  1  0  0  0  0
  9 10  2  0  0  0  0
  9 33  1  0  0  0  0
 10 34  1  0  0  0  0
 11 12  2  0  0  0  0
 11 29  1  0  0  0  0
 12 13  1  0  0  0  0
 12 35  1  0  0  0  0
 13 14  2  0  0  0  0
 13 36  1  0  0  0  0
 14 15  1  0  0  0  0
 14 37  1  0  0  0  0
 15 16  1  0  0  0  0
 15 29  2  0  0  0  0
 16 17  1  0  0  0  0
 16 38  1  0  0  0  0
 17 18  1  0  0  0  0
 17 39  1  0  0  0  0
 17 40  1  0  0  0  0
 18 19  2  0  0  0  0
 18 28  1  0  0  0  0
 19 20  1  0  0  0  0
 19 41  1  0  0  0  0
 20 21  1  0  0  0  0
 20 42  1  0  0  0  0
 21 22  2  0  0  0  0
 21 23  1  0  0  0  0
 23 24  2  0  0  0  0
 23 28  1  0  0  0  0
 24 25  1  0  0  0  0
 24 43  1  0  0  0  0
 25 26  2  0  0  0  0
 25 44  1  0  0  0  0
 26 27  1  0  0  0  0
 26 45  1  0  0  0  0
 27 28  2  0  0  0  0
 27 46  1  0  0  0  0
M  END
$$$$
