
 OpenBabel01122422403D

 46 49  0  0  1  0  0  0  0  0999 V2000
    3.5411   -0.8184   -2.2225 O   0  0  0  0  0  0  0  0  0  0  0  0
    3.6689   -0.2555   -1.1442 C   0  0  0  0  0  0  0  0  0  0  0  0
    3.1868    1.0108   -0.8577 N   0  0  0  0  0  0  0  0  0  0  0  0
    2.3989    1.7823   -1.8127 C   0  0  3  0  0  0  0  0  0  0  0  0
    1.2786    2.6178   -1.1273 C   0  0  0  0  0  0  0  0  0  0  0  0
    0.2421    1.9405   -0.2495 C   0  0  0  0  0  0  0  0  0  0  0  0
    0.1668    0.5572   -0.0486 C   0  0  0  0  0  0  0  0  0  0  0  0
   -0.6879    0.0303    0.9244 C   0  0  0  0  0  0  0  0  0  0  0  0
   -1.4972    0.8795    1.6690 C   0  0  0  0  0  0  0  0  0  0  0  0
   -2.2673    0.3764    2.6423 F   0  0  0  0  0  0  0  0  0  0  0  0
   -1.5083    2.2447    1.4253 C   0  0  0  0  0  0  0  0  0  0  0  0
   -0.6464    2.7721    0.4635 C   0  0  0  0  0  0  0  0  0  0  0  0
    3.3524    2.6606   -2.6172 C   0  0  0  0  0  0  0  0  0  0  0  0
    3.8203    2.2069   -3.8611 C   0  0  0  0  0  0  0  0  0  0  0  0
    4.7126    2.9732   -4.6111 C   0  0  0  0  0  0  0  0  0  0  0  0
    5.1501    4.1940   -4.1219 C   0  0  0  0  0  0  0  0  0  0  0  0
    6.0020    4.9319   -4.8426 F   0  0  0  0  0  0  0  0  0  0  0  0
    4.7201    4.6635   -2.8872 C   0  0  0  0  0  0  0  0  0  0  0  0
    3.8343    3.8925   -2.1290 C   0  0  0  0  0  0  0  0  0  0  0  0
    4.2275   -0.9691    0.0240 C   0  0  0  0  0  0  0  0  0  0  0  0
    4.9886   -0.3114    1.0051 C   0  0  0  0  0  0  0  0  0  0  0  0
    5.2713   -0.9380    2.2380 C   0  0  0  0  0  0  0  0  0  0  0  0
    4.8087   -2.2302    2.5115 C   0  0  0  0  0  0  0  0  0  0  0  0
    4.1150   -2.8713    1.5097 C   0  0  0  0  0  0  0  0  0  0  0  0
    3.8471   -2.2707    0.2811 C   0  0  0  0  0  0  0  0  0  0  0  0
    3.1076   -3.1780   -0.4791 N   0  0  0  0  0  0  0  0  0  0  0  0
    2.8879   -4.3359    0.2788 C   0  0  0  0  0  0  0  0  0  0  0  0
    2.2571   -5.3223   -0.0533 O   0  0  0  0  0  0  0  0  0  0  0  0
    3.5212   -4.1280    1.5139 N   0  0  0  0  0  0  0  0  0  0  0  0
    3.2899    1.3888    0.0703 H   0  0  0  0  0  0  0  0  0  0  0  0
    1.9075    1.0796   -2.4981 H   0  0  0  0  0  0  0  0  0  0  0  0
    0.7451    3.1865   -1.9009 H   0  0  0  0  0  0  0  0  0  0  0  0
    1.7546    3.3506   -0.4627 H   0  0  0  0  0  0  0  0  0  0  0  0
    0.7838   -0.1340   -0.6157 H   0  0  0  0  0  0  0  0  0  0  0  0
   -0.7114   -1.0374    1.1182 H   0  0  0  0  0  0  0  0  0  0  0  0
   -2.1651    2.8899    1.9994 H   0  0  0  0  0  0  0  0  0  0  0  0
   -0.6472    3.8481    0.2936 H   0  0  0  0  0  0  0  0  0  0  0  0
    3.5014    1.2344   -4.2439 H   0  0  0  0  0  0  0  0  0  0  0  0
    5.0764    2.6155   -5.5704 H   0  0  0  0  0  0  0  0  0  0  0  0
    5.0787    5.6179   -2.5185 H   0  0  0  0  0  0  0  0  0  0  0  0
    3.5390    4.2720   -1.1571 H   0  0  0  0  0  0  0  0  0  0  0  0
    5.3501    0.7005    0.8332 H   0  0  0  0  0  0  0  0  0  0  0  0
    5.8300   -0.3948    2.9984 H   0  0  0  0  0  0  0  0  0  0  0  0
    4.9832   -2.6965    3.4737 H   0  0  0  0  0  0  0  0  0  0  0  0
    2.7911   -3.0321   -1.4278 H   0  0  0  0  0  0  0  0  0  0  0  0
    3.4937   -4.7905    2.2724 H   0  0  0  0  0  0  0  0  0  0  0  0
  1  2  2  0  0  0  0
  2  3  1  0  0  0  0
  2 20  1  0  0  0  0
  3  4  1  0  0  0  0
  3 30  1  0  0  0  0
  4  5  1  0  0  0  0
  4 13  1  0  0  0  0
  4 31  1  0  0  0  0
  5  6  1  0  0  0  0
  5 32  1  0  0  0  0
  5 33  1  0  0  0  0
  6  7  2  0  0  0  0
  6 12  1  0  0  0  0
  7  8  1  0  0  0  0
  7 34  1  0  0  0  0
  8  9  2  0  0  0  0
  8 35  1  0  0  0  0
  9 10  1  0  0  0  0
  9 11  1  0  0  0  0
 11 12  2  0  0  0  0
 11 36  1  0  0  0  0
 12 37  1  0  0  0  0
 13 14  2  0  0  0  0
 13 19  1  0  0  0  0
 14 15  1  0  0  0  0
 14 38  1  0  0  0  0
 15 16  2  0  0  0  0
 15 39  1  0  0  0  0
 16 17  1  0  0  0  0
 16 18  1  0  0  0  0
 18 19  2  0  0  0  0
 18 40  1  0  0  0  0
 19 41  1  0  0  0  0
 20 21  2  0  0  0  0
 20 25  1  0  0  0  0
 21 22  1  0  0  0  0
 21 42  1  0  0  0  0
 22 23  2  0  0  0  0
 22 43  1  0  0  0  0
 23 24  1  0  0  0  0
 23 44  1  0  0  0  0
 24 25  2  0  0  0  0
 24 29  1  0  0  0  0
 25 26  1  0  0  0  0
 26 27  1  0  0  0  0
 26 45  1  0  0  0  0
 27 28  2  0  0  0  0
 27 29  1  0  0  0  0
 29 46  1  0  0  0  0
M  END
$$$$
