
 OpenBabel01122422403D

 49 52  0  0  0  0  0  0  0  0999 V2000
    2.6455   -1.2844    0.1532 O   0  0  0  0  0  0  0  0  0  0  0  0
    2.2878   -0.2070   -0.3219 C   0  0  0  0  0  0  0  0  0  0  0  0
    0.8157    0.1496   -0.3809 C   0  0  0  0  0  0  0  0  0  0  0  0
    0.3155    0.7814    0.8283 N   0  0  0  0  0  0  0  0  0  0  0  0
   -0.3261    1.9938    0.8715 C   0  0  0  0  0  0  0  0  0  0  0  0
   -0.7632    2.2015    2.1631 C   0  0  0  0  0  0  0  0  0  0  0  0
   -0.3807    1.0724    2.9230 C   0  0  0  0  0  0  0  0  0  0  0  0
    0.2729    0.2099    2.0750 C   0  0  0  0  0  0  0  0  0  0  0  0
    3.1311    0.7531   -0.8652 N   0  0  0  0  0  0  0  0  0  0  0  0
    4.5282    0.6286   -1.0532 C   0  0  0  0  0  0  0  0  0  0  0  0
    5.2058   -0.5977   -1.0014 C   0  0  0  0  0  0  0  0  0  0  0  0
    6.6041   -0.6656   -1.1229 C   0  0  0  0  0  0  0  0  0  0  0  0
    7.3228   -1.9855   -0.9760 C   0  0  0  0  0  0  0  0  0  0  0  0
    7.4372   -2.7192   -2.2221 N   0  0  0  0  0  0  0  0  0  0  0  0
    8.5389   -2.5901   -3.0404 C   0  0  0  0  0  0  0  0  0  0  0  0
    9.4650   -1.8250   -2.7840 O   0  0  0  0  0  0  0  0  0  0  0  0
    8.6463   -3.4937   -4.2343 C   0  0  0  0  0  0  0  0  0  0  0  0
    9.9620   -3.8797   -4.5545 C   0  0  0  0  0  0  0  0  0  0  0  0
   10.2092   -4.7213   -5.6290 C   0  0  0  0  0  0  0  0  0  0  0  0
    9.1407   -5.2020   -6.3729 C   0  0  0  0  0  0  0  0  0  0  0  0
    9.4198   -6.0192   -7.4019 F   0  0  0  0  0  0  0  0  0  0  0  0
    7.8200   -4.8559   -6.1002 C   0  0  0  0  0  0  0  0  0  0  0  0
    6.8474   -5.3817   -6.8747 N   0  0  0  0  0  0  0  0  0  0  0  0
    5.5718   -5.0197   -6.6625 C   0  0  0  0  0  0  0  0  0  0  0  0
    5.1998   -4.1085   -5.7020 C   0  0  0  0  0  0  0  0  0  0  0  0
    6.1969   -3.5623   -4.8976 C   0  0  0  0  0  0  0  0  0  0  0  0
    7.5526   -3.9531   -5.0359 C   0  0  0  0  0  0  0  0  0  0  0  0
    7.3198    0.5164   -1.3384 C   0  0  0  0  0  0  0  0  0  0  0  0
    6.6519    1.7393   -1.4315 C   0  0  0  0  0  0  0  0  0  0  0  0
    5.2612    1.7996   -1.2996 C   0  0  0  0  0  0  0  0  0  0  0  0
    0.2353   -0.7702   -0.5289 H   0  0  0  0  0  0  0  0  0  0  0  0
    0.6140    0.8072   -1.2314 H   0  0  0  0  0  0  0  0  0  0  0  0
   -0.4428    2.6061   -0.0143 H   0  0  0  0  0  0  0  0  0  0  0  0
   -1.3137    3.0647    2.5138 H   0  0  0  0  0  0  0  0  0  0  0  0
   -0.5777    0.9005    3.9758 H   0  0  0  0  0  0  0  0  0  0  0  0
    0.7050   -0.7687    2.2577 H   0  0  0  0  0  0  0  0  0  0  0  0
    2.7440    1.6808   -1.0042 H   0  0  0  0  0  0  0  0  0  0  0  0
    4.6604   -1.5259   -0.8559 H   0  0  0  0  0  0  0  0  0  0  0  0
    6.7734   -2.6260   -0.2755 H   0  0  0  0  0  0  0  0  0  0  0  0
    8.3173   -1.8302   -0.5403 H   0  0  0  0  0  0  0  0  0  0  0  0
    6.7885   -3.4789   -2.3677 H   0  0  0  0  0  0  0  0  0  0  0  0
   10.8025   -3.5186   -3.9642 H   0  0  0  0  0  0  0  0  0  0  0  0
   11.2211   -5.0118   -5.8943 H   0  0  0  0  0  0  0  0  0  0  0  0
    4.8414   -5.4866   -7.3185 H   0  0  0  0  0  0  0  0  0  0  0  0
    4.1596   -3.8207   -5.5876 H   0  0  0  0  0  0  0  0  0  0  0  0
    5.8951   -2.8050   -4.1800 H   0  0  0  0  0  0  0  0  0  0  0  0
    8.4051    0.4912   -1.4254 H   0  0  0  0  0  0  0  0  0  0  0  0
    7.2203    2.6535   -1.5916 H   0  0  0  0  0  0  0  0  0  0  0  0
    4.7735    2.7633   -1.3555 H   0  0  0  0  0  0  0  0  0  0  0  0
  1  2  2  0  0  0  0
  2  3  1  0  0  0  0
  2  9  1  0  0  0  0
  3  4  1  0  0  0  0
  3 31  1  0  0  0  0
  3 32  1  0  0  0  0
  4  5  1  0  0  0  0
  4  8  1  0  0  0  0
  5  6  2  0  0  0  0
  5 33  1  0  0  0  0
  6  7  1  0  0  0  0
  6 34  1  0  0  0  0
  7  8  2  0  0  0  0
  7 35  1  0  0  0  0
  8 36  1  0  0  0  0
  9 10  1  0  0  0  0
  9 37  1  0  0  0  0
 10 11  2  0  0  0  0
 10 30  1  0  0  0  0
 11 12  1  0  0  0  0
 11 38  1  0  0  0  0
 12 13  1  0  0  0  0
 12 28  2  0  0  0  0
 13 14  1  0  0  0  0
 13 39  1  0  0  0  0
 13 40  1  0  0  0  0
 14 15  1  0  0  0  0
 14 41  1  0  0  0  0
 15 16  2  0  0  0  0
 15 17  1  0  0  0  0
 17 18  2  0  0  0  0
 17 27  1  0  0  0  0
 18 19  1  0  0  0  0
 18 42  1  0  0  0  0
 19 20  2  0  0  0  0
 19 43  1  0  0  0  0
 20 21  1  0  0  0  0
 20 22  1  0  0  0  0
 22 23  2  0  0  0  0
 22 27  1  0  0  0  0
 23 24  1  0  0  0  0
 24 25  2  0  0  0  0
 24 44  1  0  0  0  0
 25 26  1  0  0  0  0
 25 45  1  0  0  0  0
 26 27  2  0  0  0  0
 26 46  1  0  0  0  0
 28 29  1  0  0  0  0
 28 47  1  0  0  0  0
 29 30  2  0  0  0  0
 29 48  1  0  0  0  0
 30 49  1  0  0  0  0
M  END
$$$$
