
 OpenBabel01122422403D

 54 57  0  0  0  0  0  0  0  0999 V2000
    3.7150    6.9376    6.2363 C   0  0  0  0  0  0  0  0  0  0  0  0
    4.2133    5.8026    5.5424 O   0  0  0  0  0  0  0  0  0  0  0  0
    5.5710    5.6440    5.4621 C   0  0  0  0  0  0  0  0  0  0  0  0
    6.4426    6.1805    6.4225 C   0  0  0  0  0  0  0  0  0  0  0  0
    7.8133    5.9166    6.3759 C   0  0  0  0  0  0  0  0  0  0  0  0
    8.3309    5.1119    5.3691 C   0  0  0  0  0  0  0  0  0  0  0  0
    7.4788    4.5908    4.3968 C   0  0  0  0  0  0  0  0  0  0  0  0
    6.0988    4.8496    4.4248 C   0  0  0  0  0  0  0  0  0  0  0  0
    5.4320    4.2637    3.3746 O   0  0  0  0  0  0  0  0  0  0  0  0
    4.0341    4.4825    3.2666 C   0  0  0  0  0  0  0  0  0  0  0  0
    3.4854    3.8891    1.9673 C   0  0  0  0  0  0  0  0  0  0  0  0
    3.1142    2.7159    1.8839 O   0  0  0  0  0  0  0  0  0  0  0  0
    3.3469    4.7167    0.8748 N   0  0  0  0  0  0  0  0  0  0  0  0
    3.9170    5.9883    0.7711 C   0  0  0  0  0  0  0  0  0  0  0  0
    5.2817    6.1283    0.5250 C   0  0  0  0  0  0  0  0  0  0  0  0
    5.8388    7.3992    0.5239 C   0  0  0  0  0  0  0  0  0  0  0  0
    5.0271    8.5175    0.7414 C   0  0  0  0  0  0  0  0  0  0  0  0
    3.6448    8.3905    0.9239 C   0  0  0  0  0  0  0  0  0  0  0  0
    2.7779    9.5049    1.0698 N   0  0  0  0  0  0  0  0  0  0  0  0
    3.1008   10.8074    0.7109 C   0  0  0  0  0  0  0  0  0  0  0  0
    4.1863   11.1280    0.2330 O   0  0  0  0  0  0  0  0  0  0  0  0
    2.0621   11.7910    0.8746 C   0  0  0  0  0  0  0  0  0  0  0  0
    1.0165   11.8805    1.7748 C   0  0  0  0  0  0  0  0  0  0  0  0
    0.3128   13.0486    1.6237 N   0  0  0  0  0  0  0  0  0  0  0  0
    0.9140   13.6947    0.6482 C   0  0  0  0  0  0  0  0  0  0  0  0
    0.6546   14.9682    0.0624 C   0  0  0  0  0  0  0  0  0  0  0  0
    1.4050   15.4049   -0.9657 C   0  0  0  0  0  0  0  0  0  0  0  0
    2.4939   14.6052   -1.5142 C   0  0  0  0  0  0  0  0  0  0  0  0
    3.2898   15.1236   -2.6706 C   0  0  0  0  0  0  0  0  0  0  0  0
    2.7473   13.4114   -0.9490 C   0  0  0  0  0  0  0  0  0  0  0  0
    1.9812   12.9590    0.1332 N   0  0  0  0  0  0  0  0  0  0  0  0
    3.0949    7.1072    0.9610 C   0  0  0  0  0  0  0  0  0  0  0  0
    2.6284    6.9495    6.1039 H   0  0  0  0  0  0  0  0  0  0  0  0
    4.1151    7.8644    5.8130 H   0  0  0  0  0  0  0  0  0  0  0  0
    3.9091    6.8694    7.3102 H   0  0  0  0  0  0  0  0  0  0  0  0
    6.0791    6.7882    7.2443 H   0  0  0  0  0  0  0  0  0  0  0  0
    8.4710    6.3264    7.1386 H   0  0  0  0  0  0  0  0  0  0  0  0
    9.3934    4.8859    5.3413 H   0  0  0  0  0  0  0  0  0  0  0  0
    7.8902    3.9627    3.6092 H   0  0  0  0  0  0  0  0  0  0  0  0
    3.7973    5.5502    3.2834 H   0  0  0  0  0  0  0  0  0  0  0  0
    3.5070    3.9806    4.0860 H   0  0  0  0  0  0  0  0  0  0  0  0
    3.0778    4.2398    0.0218 H   0  0  0  0  0  0  0  0  0  0  0  0
    5.9194    5.2634    0.3654 H   0  0  0  0  0  0  0  0  0  0  0  0
    6.9052    7.5367    0.3667 H   0  0  0  0  0  0  0  0  0  0  0  0
    5.5229    9.4825    0.7749 H   0  0  0  0  0  0  0  0  0  0  0  0
    1.8117    9.3099    1.2917 H   0  0  0  0  0  0  0  0  0  0  0  0
    0.7506   11.1830    2.5575 H   0  0  0  0  0  0  0  0  0  0  0  0
   -0.1516   15.5680    0.4699 H   0  0  0  0  0  0  0  0  0  0  0  0
    1.2092   16.3833   -1.4047 H   0  0  0  0  0  0  0  0  0  0  0  0
    2.9072   16.0802   -3.0401 H   0  0  0  0  0  0  0  0  0  0  0  0
    3.2608   14.4140   -3.5048 H   0  0  0  0  0  0  0  0  0  0  0  0
    4.3352   15.2738   -2.3797 H   0  0  0  0  0  0  0  0  0  0  0  0
    3.5419   12.7668   -1.3054 H   0  0  0  0  0  0  0  0  0  0  0  0
    2.0332    6.9566    1.1343 H   0  0  0  0  0  0  0  0  0  0  0  0
  1  2  1  0  0  0  0
  1 33  1  0  0  0  0
  1 34  1  0  0  0  0
  1 35  1  0  0  0  0
  2  3  1  0  0  0  0
  3  4  2  0  0  0  0
  3  8  1  0  0  0  0
  4  5  1  0  0  0  0
  4 36  1  0  0  0  0
  5  6  2  0  0  0  0
  5 37  1  0  0  0  0
  6  7  1  0  0  0  0
  6 38  1  0  0  0  0
  7  8  2  0  0  0  0
  7 39  1  0  0  0  0
  8  9  1  0  0  0  0
  9 10  1  0  0  0  0
 10 11  1  0  0  0  0
 10 40  1  0  0  0  0
 10 41  1  0  0  0  0
 11 12  2  0  0  0  0
 11 13  1  0  0  0  0
 13 14  1  0  0  0  0
 13 42  1  0  0  0  0
 14 15  2  0  0  0  0
 14 32  1  0  0  0  0
 15 16  1  0  0  0  0
 15 43  1  0  0  0  0
 16 17  2  0  0  0  0
 16 44  1  0  0  0  0
 17 18  1  0  0  0  0
 17 45  1  0  0  0  0
 18 19  1  0  0  0  0
 18 32  2  0  0  0  0
 19 20  1  0  0  0  0
 19 46  1  0  0  0  0
 20 21  2  0  0  0  0
 20 22  1  0  0  0  0
 22 23  2  0  0  0  0
 22 31  1  0  0  0  0
 23 24  1  0  0  0  0
 23 47  1  0  0  0  0
 24 25  2  0  0  0  0
 25 26  1  0  0  0  0
 25 31  1  0  0  0  0
 26 27  2  0  0  0  0
 26 48  1  0  0  0  0
 27 28  1  0  0  0  0
 27 49  1  0  0  0  0
 28 29  1  0  0  0  0
 28 30  2  0  0  0  0
 29 50  1  0  0  0  0
 29 51  1  0  0  0  0
 29 52  1  0  0  0  0
 30 31  1  0  0  0  0
 30 53  1  0  0  0  0
 32 54  1  0  0  0  0
M  END
$$$$
