
 OpenBabel01122422403D

 47 50  0  0  0  0  0  0  0  0999 V2000
    5.2396   -2.1352   -0.3972 O   0  0  0  0  0  0  0  0  0  0  0  0
    4.9971   -0.9535   -0.5644 C   0  0  0  0  0  0  0  0  0  0  0  0
    4.3135   -0.4808   -1.6264 O   0  0  0  0  0  0  0  0  0  0  0  0
    5.4468    0.0863    0.3793 C   0  0  0  0  0  0  0  0  0  0  0  0
    6.6021   -0.1305    1.1082 C   0  0  0  0  0  0  0  0  0  0  0  0
    7.0730    0.7233    2.0524 N   0  0  0  0  0  0  0  0  0  0  0  0
    6.4001    1.8475    2.3093 C   0  0  0  0  0  0  0  0  0  0  0  0
    6.8643    2.6586    3.2592 N   0  0  0  0  0  0  0  0  0  0  0  0
    6.2652    3.8497    3.4542 C   0  0  0  0  0  0  0  0  0  0  0  0
    6.8555    4.6628    4.4210 N   0  0  0  0  0  0  0  0  0  0  0  0
    6.9299    6.0367    4.3575 C   0  0  0  0  0  0  0  0  0  0  0  0
    6.5090    6.7066    3.4193 O   0  0  0  0  0  0  0  0  0  0  0  0
    7.6412    6.7267    5.4822 C   0  0  0  0  0  0  0  0  0  0  0  0
    7.9693    8.0823    5.2925 C   0  0  0  0  0  0  0  0  0  0  0  0
    8.6172    8.8264    6.2909 C   0  0  0  0  0  0  0  0  0  0  0  0
    9.0055   10.2660    6.0409 C   0  0  0  0  0  0  0  0  0  0  0  0
    7.9388   11.2772    6.3924 C   0  0  0  0  0  0  0  0  0  0  0  0
    7.8962   11.8506    7.6727 C   0  0  0  0  0  0  0  0  0  0  0  0
    6.9240   12.8009    7.9905 C   0  0  0  0  0  0  0  0  0  0  0  0
    5.9809   13.1833    7.0381 C   0  0  0  0  0  0  0  0  0  0  0  0
    6.0066   12.6146    5.7657 C   0  0  0  0  0  0  0  0  0  0  0  0
    6.9750   11.6611    5.4463 C   0  0  0  0  0  0  0  0  0  0  0  0
    8.9006    8.2077    7.5129 C   0  0  0  0  0  0  0  0  0  0  0  0
    8.5885    6.8607    7.7158 C   0  0  0  0  0  0  0  0  0  0  0  0
    7.9776    6.1196    6.6999 C   0  0  0  0  0  0  0  0  0  0  0  0
    7.7257    4.7909    6.9165 O   0  0  0  0  0  0  0  0  0  0  0  0
    5.1197    4.2380    2.7780 C   0  0  0  0  0  0  0  0  0  0  0  0
    4.5753    3.3655    1.8486 C   0  0  0  0  0  0  0  0  0  0  0  0
    5.2274    2.1581    1.5883 C   0  0  0  0  0  0  0  0  0  0  0  0
    4.7370    1.2542    0.6323 C   0  0  0  0  0  0  0  0  0  0  0  0
    4.3385    0.4841   -1.7597 H   0  0  0  0  0  0  0  0  0  0  0  0
    7.2065   -1.0235    0.9606 H   0  0  0  0  0  0  0  0  0  0  0  0
    7.4582    4.1836    5.0804 H   0  0  0  0  0  0  0  0  0  0  0  0
    7.7302    8.5613    4.3438 H   0  0  0  0  0  0  0  0  0  0  0  0
    9.2894   10.3886    4.9868 H   0  0  0  0  0  0  0  0  0  0  0  0
    9.9244   10.4969    6.5966 H   0  0  0  0  0  0  0  0  0  0  0  0
    8.6274   11.5693    8.4252 H   0  0  0  0  0  0  0  0  0  0  0  0
    6.9020   13.2442    8.9817 H   0  0  0  0  0  0  0  0  0  0  0  0
    5.2248   13.9229    7.2851 H   0  0  0  0  0  0  0  0  0  0  0  0
    5.2705   12.9091    5.0225 H   0  0  0  0  0  0  0  0  0  0  0  0
    6.9787   11.2289    4.4502 H   0  0  0  0  0  0  0  0  0  0  0  0
    9.3805    8.7682    8.3128 H   0  0  0  0  0  0  0  0  0  0  0  0
    8.8355    6.4074    8.6719 H   0  0  0  0  0  0  0  0  0  0  0  0
    8.0108    4.5525    7.8164 H   0  0  0  0  0  0  0  0  0  0  0  0
    4.6295    5.1822    2.9919 H   0  0  0  0  0  0  0  0  0  0  0  0
    3.6610    3.6421    1.3306 H   0  0  0  0  0  0  0  0  0  0  0  0
    3.7964    1.4586    0.1286 H   0  0  0  0  0  0  0  0  0  0  0  0
  1  2  2  0  0  0  0
  2  3  1  0  0  0  0
  2  4  1  0  0  0  0
  3 31  1  0  0  0  0
  4  5  2  0  0  0  0
  4 30  1  0  0  0  0
  5  6  1  0  0  0  0
  5 32  1  0  0  0  0
  6  7  2  0  0  0  0
  7  8  1  0  0  0  0
  7 29  1  0  0  0  0
  8  9  2  0  0  0  0
  9 10  1  0  0  0  0
  9 27  1  0  0  0  0
 10 11  1  0  0  0  0
 10 33  1  0  0  0  0
 11 12  2  0  0  0  0
 11 13  1  0  0  0  0
 13 14  2  0  0  0  0
 13 25  1  0  0  0  0
 14 15  1  0  0  0  0
 14 34  1  0  0  0  0
 15 16  1  0  0  0  0
 15 23  2  0  0  0  0
 16 17  1  0  0  0  0
 16 35  1  0  0  0  0
 16 36  1  0  0  0  0
 17 18  2  0  0  0  0
 17 22  1  0  0  0  0
 18 19  1  0  0  0  0
 18 37  1  0  0  0  0
 19 20  2  0  0  0  0
 19 38  1  0  0  0  0
 20 21  1  0  0  0  0
 20 39  1  0  0  0  0
 21 22  2  0  0  0  0
 21 40  1  0  0  0  0
 22 41  1  0  0  0  0
 23 24  1  0  0  0  0
 23 42  1  0  0  0  0
 24 25  2  0  0  0  0
 24 43  1  0  0  0  0
 25 26  1  0  0  0  0
 26 44  1  0  0  0  0
 27 28  2  0  0  0  0
 27 45  1  0  0  0  0
 28 29  1  0  0  0  0
 28 46  1  0  0  0  0
 29 30  2  0  0  0  0
 30 47  1  0  0  0  0
M  END
$$$$
