
 OpenBabel01122422403D

 46 49  0  0  0  0  0  0  0  0999 V2000
    1.8468    1.9567   -2.8566 N   0  0  0  0  0  0  0  0  0  0  0  0
    1.7429    1.5537   -1.7711 C   0  0  0  0  0  0  0  0  0  0  0  0
    1.6657    1.0445   -0.4326 C   0  0  0  0  0  0  0  0  0  0  0  0
    2.3954   -0.1343   -0.1763 C   0  0  0  0  0  0  0  0  0  0  0  0
    2.3535   -0.7437    1.0728 C   0  0  0  0  0  0  0  0  0  0  0  0
    1.5988   -0.1690    2.0845 C   0  0  0  0  0  0  0  0  0  0  0  0
    0.8941    1.0168    1.8459 C   0  0  0  0  0  0  0  0  0  0  0  0
    0.8917    1.6563    0.5828 C   0  0  0  0  0  0  0  0  0  0  0  0
    0.0716    2.8910    0.3928 C   0  0  0  0  0  0  0  0  0  0  0  0
    0.4920    3.9793   -0.3943 C   0  0  0  0  0  0  0  0  0  0  0  0
   -0.3040    5.1219   -0.5677 C   0  0  0  0  0  0  0  0  0  0  0  0
   -1.5204    5.2425    0.1028 C   0  0  0  0  0  0  0  0  0  0  0  0
   -2.2952    6.5114   -0.0305 C   0  0  0  0  0  0  0  0  0  0  0  0
   -2.1709    7.2096   -1.0307 O   0  0  0  0  0  0  0  0  0  0  0  0
   -3.1113    6.8286    1.0318 N   0  0  0  0  0  0  0  0  0  0  0  0
   -3.9671    8.0059    1.0555 C   0  0  0  0  0  0  0  0  0  0  0  0
   -5.3713    7.7566    0.5389 C   0  0  0  0  0  0  0  0  0  0  0  0
   -5.7233    6.5012    0.0048 C   0  0  0  0  0  0  0  0  0  0  0  0
   -6.9960    6.2934   -0.5000 C   0  0  0  0  0  0  0  0  0  0  0  0
   -7.9535    7.2344   -0.5093 N   0  0  0  0  0  0  0  0  0  0  0  0
   -7.6088    8.4389    0.0064 C   0  0  0  0  0  0  0  0  0  0  0  0
   -6.3563    8.7689    0.5391 C   0  0  0  0  0  0  0  0  0  0  0  0
   -6.1550   10.1316    1.0484 C   0  0  0  0  0  0  0  0  0  0  0  0
   -5.3079   10.4153    2.0515 N   0  0  0  0  0  0  0  0  0  0  0  0
   -5.4149   11.7411    2.2310 N   0  0  0  0  0  0  0  0  0  0  0  0
   -6.3044   12.3346    1.3916 C   0  0  0  0  0  0  0  0  0  0  0  0
   -6.8129   11.3218    0.6174 C   0  0  0  0  0  0  0  0  0  0  0  0
   -1.9693    4.1742    0.8822 C   0  0  0  0  0  0  0  0  0  0  0  0
   -1.1868    3.0184    1.0154 C   0  0  0  0  0  0  0  0  0  0  0  0
    2.9944   -0.5886   -0.9652 H   0  0  0  0  0  0  0  0  0  0  0  0
    2.9057   -1.6628    1.2523 H   0  0  0  0  0  0  0  0  0  0  0  0
    1.5550   -0.6398    3.0641 H   0  0  0  0  0  0  0  0  0  0  0  0
    0.3361    1.4407    2.6800 H   0  0  0  0  0  0  0  0  0  0  0  0
    1.4597    3.9777   -0.8917 H   0  0  0  0  0  0  0  0  0  0  0  0
    0.0449    5.9232   -1.2179 H   0  0  0  0  0  0  0  0  0  0  0  0
   -3.0987    6.2680    1.8693 H   0  0  0  0  0  0  0  0  0  0  0  0
   -3.4882    8.8034    0.4780 H   0  0  0  0  0  0  0  0  0  0  0  0
   -4.0099    8.2867    2.1122 H   0  0  0  0  0  0  0  0  0  0  0  0
   -5.0153    5.6816   -0.0437 H   0  0  0  0  0  0  0  0  0  0  0  0
   -7.2773    5.3340   -0.9244 H   0  0  0  0  0  0  0  0  0  0  0  0
   -8.4206    9.1610   -0.0198 H   0  0  0  0  0  0  0  0  0  0  0  0
   -4.8481   12.1772    2.9511 H   0  0  0  0  0  0  0  0  0  0  0  0
   -6.4931   13.3984    1.4157 H   0  0  0  0  0  0  0  0  0  0  0  0
   -7.5534   11.4273   -0.1634 H   0  0  0  0  0  0  0  0  0  0  0  0
   -2.9349    4.2027    1.3781 H   0  0  0  0  0  0  0  0  0  0  0  0
   -1.5873    2.2059    1.6200 H   0  0  0  0  0  0  0  0  0  0  0  0
  1  2  3  0  0  0  0
  2  3  1  0  0  0  0
  3  4  2  0  0  0  0
  3  8  1  0  0  0  0
  4  5  1  0  0  0  0
  4 30  1  0  0  0  0
  5  6  2  0  0  0  0
  5 31  1  0  0  0  0
  6  7  1  0  0  0  0
  6 32  1  0  0  0  0
  7  8  2  0  0  0  0
  7 33  1  0  0  0  0
  8  9  1  0  0  0  0
  9 10  2  0  0  0  0
  9 29  1  0  0  0  0
 10 11  1  0  0  0  0
 10 34  1  0  0  0  0
 11 12  2  0  0  0  0
 11 35  1  0  0  0  0
 12 13  1  0  0  0  0
 12 28  1  0  0  0  0
 13 14  2  0  0  0  0
 13 15  1  0  0  0  0
 15 16  1  0  0  0  0
 15 36  1  0  0  0  0
 16 17  1  0  0  0  0
 16 37  1  0  0  0  0
 16 38  1  0  0  0  0
 17 18  2  0  0  0  0
 17 22  1  0  0  0  0
 18 19  1  0  0  0  0
 18 39  1  0  0  0  0
 19 20  2  0  0  0  0
 19 40  1  0  0  0  0
 20 21  1  0  0  0  0
 21 22  2  0  0  0  0
 21 41  1  0  0  0  0
 22 23  1  0  0  0  0
 23 24  2  0  0  0  0
 23 27  1  0  0  0  0
 24 25  1  0  0  0  0
 25 26  1  0  0  0  0
 25 42  1  0  0  0  0
 26 27  2  0  0  0  0
 26 43  1  0  0  0  0
 27 44  1  0  0  0  0
 28 29  2  0  0  0  0
 28 45  1  0  0  0  0
 29 46  1  0  0  0  0
M  END
$$$$
