
 OpenBabel01122422403D

 47 50  0  0  0  0  0  0  0  0999 V2000
    1.4351    1.2747   -0.2925 N   0  0  0  0  0  0  0  0  0  0  0  0
    0.5082    0.3786    0.0503 C   0  0  0  0  0  0  0  0  0  0  0  0
    0.7699   -0.6021    0.9019 N   0  0  0  0  0  0  0  0  0  0  0  0
   -0.3794   -1.2769    0.9707 N   0  0  0  0  0  0  0  0  0  0  0  0
   -1.3756   -0.8070    0.1538 C   0  0  0  0  0  0  0  0  0  0  0  0
   -2.6761   -1.4273    0.0712 C   0  0  0  0  0  0  0  0  0  0  0  0
   -3.7060   -0.8272   -0.2115 O   0  0  0  0  0  0  0  0  0  0  0  0
   -2.6586   -2.7768    0.2912 N   0  0  0  0  0  0  0  0  0  0  0  0
   -3.8425   -3.6085    0.1365 C   0  0  0  0  0  0  0  0  0  0  0  0
   -4.1240   -4.4897    1.3407 C   0  0  0  0  0  0  0  0  0  0  0  0
   -3.2114   -4.3820    2.3614 N   0  0  0  0  0  0  0  0  0  0  0  0
   -3.4513   -5.0547    3.5026 C   0  0  0  0  0  0  0  0  0  0  0  0
   -4.5433   -5.8739    3.6812 C   0  0  0  0  0  0  0  0  0  0  0  0
   -5.4354   -6.0218    2.6203 C   0  0  0  0  0  0  0  0  0  0  0  0
   -5.2625   -5.3299    1.4029 C   0  0  0  0  0  0  0  0  0  0  0  0
   -6.2764   -5.4837    0.3163 C   0  0  0  0  0  0  0  0  0  0  0  0
   -7.6519   -5.5949    0.6152 C   0  0  0  0  0  0  0  0  0  0  0  0
   -8.6210   -5.6930   -0.3920 C   0  0  0  0  0  0  0  0  0  0  0  0
   -8.2357   -5.6446   -1.7216 C   0  0  0  0  0  0  0  0  0  0  0  0
   -9.1618   -5.6912   -2.6871 F   0  0  0  0  0  0  0  0  0  0  0  0
   -6.8971   -5.5632   -2.0602 C   0  0  0  0  0  0  0  0  0  0  0  0
   -5.9307   -5.5328   -1.0486 C   0  0  0  0  0  0  0  0  0  0  0  0
   -0.8323    0.3242   -0.4518 C   0  0  0  0  0  0  0  0  0  0  0  0
   -1.4972    1.2007   -1.4182 C   0  0  0  0  0  0  0  0  0  0  0  0
   -1.2755    2.5859   -1.3720 C   0  0  0  0  0  0  0  0  0  0  0  0
   -1.7967    3.4334   -2.3534 C   0  0  0  0  0  0  0  0  0  0  0  0
   -2.5871    2.9132   -3.3737 C   0  0  0  0  0  0  0  0  0  0  0  0
   -2.8590    1.5478   -3.4079 C   0  0  0  0  0  0  0  0  0  0  0  0
   -2.3061    0.6957   -2.4454 C   0  0  0  0  0  0  0  0  0  0  0  0
    2.3473    1.2300    0.1422 H   0  0  0  0  0  0  0  0  0  0  0  0
    1.2907    2.0102   -0.9694 H   0  0  0  0  0  0  0  0  0  0  0  0
   -0.4285   -2.0687    1.6020 H   0  0  0  0  0  0  0  0  0  0  0  0
   -1.8115   -3.2866    0.4787 H   0  0  0  0  0  0  0  0  0  0  0  0
   -3.5800   -4.2375   -0.7142 H   0  0  0  0  0  0  0  0  0  0  0  0
   -4.7148   -2.9967   -0.1034 H   0  0  0  0  0  0  0  0  0  0  0  0
   -2.7237   -4.9067    4.2956 H   0  0  0  0  0  0  0  0  0  0  0  0
   -4.7021   -6.3887    4.6224 H   0  0  0  0  0  0  0  0  0  0  0  0
   -6.2836   -6.6884    2.7641 H   0  0  0  0  0  0  0  0  0  0  0  0
   -7.9981   -5.5973    1.6470 H   0  0  0  0  0  0  0  0  0  0  0  0
   -9.6726   -5.7915   -0.1428 H   0  0  0  0  0  0  0  0  0  0  0  0
   -6.6049   -5.5326   -3.1053 H   0  0  0  0  0  0  0  0  0  0  0  0
   -4.8955   -5.5596   -1.3696 H   0  0  0  0  0  0  0  0  0  0  0  0
   -0.6889    3.0233   -0.5677 H   0  0  0  0  0  0  0  0  0  0  0  0
   -1.5861    4.4987   -2.3171 H   0  0  0  0  0  0  0  0  0  0  0  0
   -2.9973    3.5706   -4.1356 H   0  0  0  0  0  0  0  0  0  0  0  0
   -3.4981    1.1408   -4.1870 H   0  0  0  0  0  0  0  0  0  0  0  0
   -2.5221   -0.3664   -2.5168 H   0  0  0  0  0  0  0  0  0  0  0  0
  1  2  1  0  0  0  0
  1 30  1  0  0  0  0
  1 31  1  0  0  0  0
  2  3  2  0  0  0  0
  2 23  1  0  0  0  0
  3  4  1  0  0  0  0
  4  5  1  0  0  0  0
  4 32  1  0  0  0  0
  5  6  1  0  0  0  0
  5 23  2  0  0  0  0
  6  7  2  0  0  0  0
  6  8  1  0  0  0  0
  8  9  1  0  0  0  0
  8 33  1  0  0  0  0
  9 10  1  0  0  0  0
  9 34  1  0  0  0  0
  9 35  1  0  0  0  0
 10 11  2  0  0  0  0
 10 15  1  0  0  0  0
 11 12  1  0  0  0  0
 12 13  2  0  0  0  0
 12 36  1  0  0  0  0
 13 14  1  0  0  0  0
 13 37  1  0  0  0  0
 14 15  2  0  0  0  0
 14 38  1  0  0  0  0
 15 16  1  0  0  0  0
 16 17  2  0  0  0  0
 16 22  1  0  0  0  0
 17 18  1  0  0  0  0
 17 39  1  0  0  0  0
 18 19  2  0  0  0  0
 18 40  1  0  0  0  0
 19 20  1  0  0  0  0
 19 21  1  0  0  0  0
 21 22  2  0  0  0  0
 21 41  1  0  0  0  0
 22 42  1  0  0  0  0
 23 24  1  0  0  0  0
 24 25  2  0  0  0  0
 24 29  1  0  0  0  0
 25 26  1  0  0  0  0
 25 43  1  0  0  0  0
 26 27  2  0  0  0  0
 26 44  1  0  0  0  0
 27 28  1  0  0  0  0
 27 45  1  0  0  0  0
 28 29  2  0  0  0  0
 28 46  1  0  0  0  0
 29 47  1  0  0  0  0
M  END
$$$$
