
 OpenBabel01122422403D

 41 43  0  0  0  0  0  0  0  0999 V2000
    8.3310   -3.8630    2.7455 N   0  0  0  0  0  0  0  0  0  0  0  0
    7.9593   -3.0516    2.0110 C   0  0  0  0  0  0  0  0  0  0  0  0
    7.5244   -2.0267    1.1109 C   0  0  0  0  0  0  0  0  0  0  0  0
    6.4036   -2.2236    0.3097 C   0  0  0  0  0  0  0  0  0  0  0  0
    5.7236   -3.3784    0.3639 F   0  0  0  0  0  0  0  0  0  0  0  0
    5.9808   -1.2226   -0.5620 C   0  0  0  0  0  0  0  0  0  0  0  0
    4.9096   -1.4249   -1.3416 F   0  0  0  0  0  0  0  0  0  0  0  0
    6.6620   -0.0105   -0.6542 C   0  0  0  0  0  0  0  0  0  0  0  0
    7.7942    0.1923    0.1390 C   0  0  0  0  0  0  0  0  0  0  0  0
    8.6092    1.4301    0.0136 C   0  0  0  0  0  0  0  0  0  0  0  0
    9.8275    1.3281    0.0910 O   0  0  0  0  0  0  0  0  0  0  0  0
    7.8921    2.6102   -0.0937 N   0  0  0  0  0  0  0  0  0  0  0  0
    8.5318    3.8691   -0.0896 C   0  0  0  0  0  0  0  0  0  0  0  0
    8.0611    4.8375    0.7994 C   0  0  0  0  0  0  0  0  0  0  0  0
    8.7088    6.0731    0.9220 C   0  0  0  0  0  0  0  0  0  0  0  0
    8.4051    6.9964    1.9521 N   0  0  0  0  0  0  0  0  0  0  0  0
    7.7670    6.6676    3.1376 C   0  0  0  0  0  0  0  0  0  0  0  0
    7.3576    5.5548    3.4591 O   0  0  0  0  0  0  0  0  0  0  0  0
    7.6543    7.8054    4.1087 C   0  0  0  0  0  0  0  0  0  0  0  0
    7.6202    7.5217    5.4211 C   0  0  0  0  0  0  0  0  0  0  0  0
    7.4771    8.5848    6.3885 C   0  0  0  0  0  0  0  0  0  0  0  0
    7.3419    9.8550    5.9859 C   0  0  0  0  0  0  0  0  0  0  0  0
    7.3459   10.1695    4.5335 C   0  0  0  0  0  0  0  0  0  0  0  0
    7.1804   11.3137    4.1308 O   0  0  0  0  0  0  0  0  0  0  0  0
    7.5405    9.1095    3.6812 N   0  0  0  0  0  0  0  0  0  0  0  0
    9.7332    6.3893    0.0256 C   0  0  0  0  0  0  0  0  0  0  0  0
   10.1811    5.4359   -0.8957 C   0  0  0  0  0  0  0  0  0  0  0  0
    9.6068    4.1624   -0.9264 C   0  0  0  0  0  0  0  0  0  0  0  0
    8.2257   -0.8147    1.0201 C   0  0  0  0  0  0  0  0  0  0  0  0
    6.3240    0.7329   -1.3696 H   0  0  0  0  0  0  0  0  0  0  0  0
    6.9501    2.5928    0.2792 H   0  0  0  0  0  0  0  0  0  0  0  0
    7.2290    4.5847    1.4461 H   0  0  0  0  0  0  0  0  0  0  0  0
    8.9008    7.8791    1.9282 H   0  0  0  0  0  0  0  0  0  0  0  0
    7.6865    6.5004    5.7882 H   0  0  0  0  0  0  0  0  0  0  0  0
    7.4704    8.3223    7.4419 H   0  0  0  0  0  0  0  0  0  0  0  0
    7.2159   10.6831    6.6712 H   0  0  0  0  0  0  0  0  0  0  0  0
    7.4745    9.3258    2.6959 H   0  0  0  0  0  0  0  0  0  0  0  0
   10.2321    7.3548    0.0583 H   0  0  0  0  0  0  0  0  0  0  0  0
   10.9993    5.6742   -1.5716 H   0  0  0  0  0  0  0  0  0  0  0  0
    9.9870    3.4194   -1.6232 H   0  0  0  0  0  0  0  0  0  0  0  0
    9.1148   -0.6492    1.6299 H   0  0  0  0  0  0  0  0  0  0  0  0
  1  2  3  0  0  0  0
  2  3  1  0  0  0  0
  3  4  2  0  0  0  0
  3 29  1  0  0  0  0
  4  5  1  0  0  0  0
  4  6  1  0  0  0  0
  6  7  1  0  0  0  0
  6  8  2  0  0  0  0
  8  9  1  0  0  0  0
  8 30  1  0  0  0  0
  9 10  1  0  0  0  0
  9 29  2  0  0  0  0
 10 11  2  0  0  0  0
 10 12  1  0  0  0  0
 12 13  1  0  0  0  0
 12 31  1  0  0  0  0
 13 14  2  0  0  0  0
 13 28  1  0  0  0  0
 14 15  1  0  0  0  0
 14 32  1  0  0  0  0
 15 16  1  0  0  0  0
 15 26  2  0  0  0  0
 16 17  1  0  0  0  0
 16 33  1  0  0  0  0
 17 18  2  0  0  0  0
 17 19  1  0  0  0  0
 19 20  2  0  0  0  0
 19 25  1  0  0  0  0
 20 21  1  0  0  0  0
 20 34  1  0  0  0  0
 21 22  2  0  0  0  0
 21 35  1  0  0  0  0
 22 23  1  0  0  0  0
 22 36  1  0  0  0  0
 23 24  2  0  0  0  0
 23 25  1  0  0  0  0
 25 37  1  0  0  0  0
 26 27  1  0  0  0  0
 26 38  1  0  0  0  0
 27 28  2  0  0  0  0
 27 39  1  0  0  0  0
 28 40  1  0  0  0  0
 29 41  1  0  0  0  0
M  END
$$$$
