
 OpenBabel01122422403D

 47 50  0  0  0  0  0  0  0  0999 V2000
    3.2020    0.9377   -0.8436 N   0  0  0  0  0  0  0  0  0  0  0  0
    2.5375    0.0508   -0.0390 C   0  0  0  0  0  0  0  0  0  0  0  0
    1.3667   -0.2213   -0.2742 O   0  0  0  0  0  0  0  0  0  0  0  0
    3.2931   -0.5346    1.1052 C   0  0  0  0  0  0  0  0  0  0  0  0
    4.2756    0.2580    1.7195 C   0  0  0  0  0  0  0  0  0  0  0  0
    4.9465   -0.2495    2.8132 C   0  0  0  0  0  0  0  0  0  0  0  0
    5.9423    0.5379    3.4136 N   0  0  0  0  0  0  0  0  0  0  0  0
    6.6695    0.1437    4.5233 C   0  0  0  0  0  0  0  0  0  0  0  0
    6.5761   -0.9227    5.1228 O   0  0  0  0  0  0  0  0  0  0  0  0
    7.6838    1.1132    5.0265 C   0  0  0  0  0  0  0  0  0  0  0  0
    7.5837    2.4967    4.8480 C   0  0  0  0  0  0  0  0  0  0  0  0
    8.5464    3.3415    5.4092 C   0  0  0  0  0  0  0  0  0  0  0  0
    9.5817    2.8166    6.1876 C   0  0  0  0  0  0  0  0  0  0  0  0
    9.6743    1.4380    6.4083 C   0  0  0  0  0  0  0  0  0  0  0  0
   10.6808    0.8658    7.3864 C   0  0  0  0  0  0  0  0  0  0  0  0
   10.1629    0.8165    8.8116 C   0  0  0  0  0  0  0  0  0  0  0  0
    9.0523    0.0364    9.1417 C   0  0  0  0  0  0  0  0  0  0  0  0
    8.5571    0.0723   10.4417 C   0  0  0  0  0  0  0  0  0  0  0  0
    9.1958    0.8594   11.3886 C   0  0  0  0  0  0  0  0  0  0  0  0
   10.3137    1.5745   10.9939 C   0  0  0  0  0  0  0  0  0  0  0  0
   10.8070    1.5759    9.7339 N   0  0  0  0  0  0  0  0  0  0  0  0
    8.7387    0.5946    5.7935 C   0  0  0  0  0  0  0  0  0  0  0  0
    4.6692   -1.4610    3.3065 N   0  0  0  0  0  0  0  0  0  0  0  0
    3.7373   -2.2275    2.7374 C   0  0  0  0  0  0  0  0  0  0  0  0
    3.5155   -3.4690    3.3130 C   0  0  0  0  0  0  0  0  0  0  0  0
    2.5835   -4.3644    2.7925 C   0  0  0  0  0  0  0  0  0  0  0  0
    1.8592   -4.0100    1.6650 C   0  0  0  0  0  0  0  0  0  0  0  0
    2.0640   -2.7600    1.0758 C   0  0  0  0  0  0  0  0  0  0  0  0
    3.0019   -1.8325    1.6071 C   0  0  0  0  0  0  0  0  0  0  0  0
    2.6925    1.2764   -1.6513 H   0  0  0  0  0  0  0  0  0  0  0  0
    4.2027    1.0693   -0.8327 H   0  0  0  0  0  0  0  0  0  0  0  0
    4.4824    1.2615    1.3695 H   0  0  0  0  0  0  0  0  0  0  0  0
    6.1619    1.4157    2.9733 H   0  0  0  0  0  0  0  0  0  0  0  0
    6.7466    2.9454    4.3243 H   0  0  0  0  0  0  0  0  0  0  0  0
    8.4667    4.4182    5.2781 H   0  0  0  0  0  0  0  0  0  0  0  0
   10.2951    3.4933    6.6554 H   0  0  0  0  0  0  0  0  0  0  0  0
   11.5989    1.4665    7.3489 H   0  0  0  0  0  0  0  0  0  0  0  0
   10.9757   -0.1449    7.0764 H   0  0  0  0  0  0  0  0  0  0  0  0
    8.5545   -0.5782    8.3986 H   0  0  0  0  0  0  0  0  0  0  0  0
    7.6746   -0.5041   10.7049 H   0  0  0  0  0  0  0  0  0  0  0  0
    8.8311    0.9139   12.4077 H   0  0  0  0  0  0  0  0  0  0  0  0
   10.8578    2.1909   11.7037 H   0  0  0  0  0  0  0  0  0  0  0  0
    8.7976   -0.4816    5.9550 H   0  0  0  0  0  0  0  0  0  0  0  0
    4.0902   -3.7447    4.1956 H   0  0  0  0  0  0  0  0  0  0  0  0
    2.4340   -5.3280    3.2690 H   0  0  0  0  0  0  0  0  0  0  0  0
    1.1336   -4.7004    1.2440 H   0  0  0  0  0  0  0  0  0  0  0  0
    1.4790   -2.5174    0.1915 H   0  0  0  0  0  0  0  0  0  0  0  0
  1  2  1  0  0  0  0
  1 30  1  0  0  0  0
  1 31  1  0  0  0  0
  2  3  2  0  0  0  0
  2  4  1  0  0  0  0
  4  5  2  0  0  0  0
  4 29  1  0  0  0  0
  5  6  1  0  0  0  0
  5 32  1  0  0  0  0
  6  7  1  0  0  0  0
  6 23  2  0  0  0  0
  7  8  1  0  0  0  0
  7 33  1  0  0  0  0
  8  9  2  0  0  0  0
  8 10  1  0  0  0  0
 10 11  2  0  0  0  0
 10 22  1  0  0  0  0
 11 12  1  0  0  0  0
 11 34  1  0  0  0  0
 12 13  2  0  0  0  0
 12 35  1  0  0  0  0
 13 14  1  0  0  0  0
 13 36  1  0  0  0  0
 14 15  1  0  0  0  0
 14 22  2  0  0  0  0
 15 16  1  0  0  0  0
 15 37  1  0  0  0  0
 15 38  1  0  0  0  0
 16 17  2  0  0  0  0
 16 21  1  0  0  0  0
 17 18  1  0  0  0  0
 17 39  1  0  0  0  0
 18 19  2  0  0  0  0
 18 40  1  0  0  0  0
 19 20  1  0  0  0  0
 19 41  1  0  0  0  0
 20 21  2  0  0  0  0
 20 42  1  0  0  0  0
 22 43  1  0  0  0  0
 23 24  1  0  0  0  0
 24 25  2  0  0  0  0
 24 29  1  0  0  0  0
 25 26  1  0  0  0  0
 25 44  1  0  0  0  0
 26 27  2  0  0  0  0
 26 45  1  0  0  0  0
 27 28  1  0  0  0  0
 27 46  1  0  0  0  0
 28 29  2  0  0  0  0
 28 47  1  0  0  0  0
M  END
$$$$
