
 OpenBabel01122422403D

 47 50  0  0  0  0  0  0  0  0999 V2000
    1.0733   -0.1945   -0.0988 O   0  0  0  0  0  0  0  0  0  0  0  0
    2.2810   -0.0433    0.0099 C   0  0  0  0  0  0  0  0  0  0  0  0
    2.9526    1.1246    0.3380 N   0  0  0  0  0  0  0  0  0  0  0  0
    2.3457    2.3490    0.6857 C   0  0  0  0  0  0  0  0  0  0  0  0
    0.9934    2.5003    0.9668 C   0  0  0  0  0  0  0  0  0  0  0  0
    0.4722    3.7648    1.2656 C   0  0  0  0  0  0  0  0  0  0  0  0
    1.3337    4.8461    1.2696 C   0  0  0  0  0  0  0  0  0  0  0  0
    2.6599    4.7458    1.0286 N   0  0  0  0  0  0  0  0  0  0  0  0
    3.1288    3.5040    0.7466 C   0  0  0  0  0  0  0  0  0  0  0  0
    3.1499   -1.2004   -0.3431 C   0  0  0  0  0  0  0  0  0  0  0  0
    2.7235   -2.0366   -1.3967 C   0  0  0  0  0  0  0  0  0  0  0  0
    3.4443   -3.1913   -1.7203 C   0  0  0  0  0  0  0  0  0  0  0  0
    4.5887   -3.5339   -0.9866 C   0  0  0  0  0  0  0  0  0  0  0  0
    5.3183   -4.8078   -1.3007 C   0  0  0  0  0  0  0  0  0  0  0  0
    6.3779   -4.5887   -2.2527 N   0  0  0  0  0  0  0  0  0  0  0  0
    7.4518   -5.4549   -2.3165 C   0  0  0  0  0  0  0  0  0  0  0  0
    7.5838   -6.4121   -1.5652 O   0  0  0  0  0  0  0  0  0  0  0  0
    8.4833   -5.1263   -3.3444 C   0  0  0  0  0  0  0  0  0  0  0  0
    9.7088   -5.7592   -3.2371 C   0  0  0  0  0  0  0  0  0  0  0  0
   10.7288   -5.3322   -4.0681 C   0  0  0  0  0  0  0  0  0  0  0  0
   10.4656   -4.3732   -5.0491 C   0  0  0  0  0  0  0  0  0  0  0  0
   11.4913   -3.9556   -5.9009 C   0  0  0  0  0  0  0  0  0  0  0  0
   11.1415   -3.3643   -7.0948 C   0  0  0  0  0  0  0  0  0  0  0  0
    9.9023   -2.9165   -7.3458 N   0  0  0  0  0  0  0  0  0  0  0  0
    8.9931   -3.1149   -6.3615 C   0  0  0  0  0  0  0  0  0  0  0  0
    7.8514   -2.4175   -6.6071 O   0  0  0  0  0  0  0  0  0  0  0  0
    9.1523   -3.8916   -5.2046 C   0  0  0  0  0  0  0  0  0  0  0  0
    8.1778   -4.1989   -4.2948 N   0  0  0  0  0  0  0  0  0  0  0  0
    5.0330   -2.6864    0.0458 C   0  0  0  0  0  0  0  0  0  0  0  0
    4.3129   -1.5295    0.3678 C   0  0  0  0  0  0  0  0  0  0  0  0
    3.9524    1.1274    0.2048 H   0  0  0  0  0  0  0  0  0  0  0  0
    0.3065    1.6580    0.9750 H   0  0  0  0  0  0  0  0  0  0  0  0
   -0.5836    3.8899    1.4851 H   0  0  0  0  0  0  0  0  0  0  0  0
    0.9740    5.8501    1.4788 H   0  0  0  0  0  0  0  0  0  0  0  0
    4.1952    3.4707    0.5441 H   0  0  0  0  0  0  0  0  0  0  0  0
    1.8087   -1.8092   -1.9451 H   0  0  0  0  0  0  0  0  0  0  0  0
    3.0798   -3.8303   -2.5158 H   0  0  0  0  0  0  0  0  0  0  0  0
    4.6360   -5.5556   -1.7223 H   0  0  0  0  0  0  0  0  0  0  0  0
    5.7220   -5.2417   -0.3779 H   0  0  0  0  0  0  0  0  0  0  0  0
    6.2787   -3.8999   -2.9930 H   0  0  0  0  0  0  0  0  0  0  0  0
    9.8732   -6.5477   -2.5095 H   0  0  0  0  0  0  0  0  0  0  0  0
   11.7052   -5.8057   -3.9963 H   0  0  0  0  0  0  0  0  0  0  0  0
   12.5360   -4.1084   -5.6517 H   0  0  0  0  0  0  0  0  0  0  0  0
   11.8686   -3.2427   -7.8927 H   0  0  0  0  0  0  0  0  0  0  0  0
    8.1359   -1.9412   -7.4095 H   0  0  0  0  0  0  0  0  0  0  0  0
    5.9053   -2.9658    0.6376 H   0  0  0  0  0  0  0  0  0  0  0  0
    4.6360   -0.9199    1.2062 H   0  0  0  0  0  0  0  0  0  0  0  0
  1  2  2  0  0  0  0
  2  3  1  0  0  0  0
  2 10  1  0  0  0  0
  3  4  1  0  0  0  0
  3 31  1  0  0  0  0
  4  5  2  0  0  0  0
  4  9  1  0  0  0  0
  5  6  1  0  0  0  0
  5 32  1  0  0  0  0
  6  7  2  0  0  0  0
  6 33  1  0  0  0  0
  7  8  1  0  0  0  0
  7 34  1  0  0  0  0
  8  9  2  0  0  0  0
  9 35  1  0  0  0  0
 10 11  2  0  0  0  0
 10 30  1  0  0  0  0
 11 12  1  0  0  0  0
 11 36  1  0  0  0  0
 12 13  2  0  0  0  0
 12 37  1  0  0  0  0
 13 14  1  0  0  0  0
 13 29  1  0  0  0  0
 14 15  1  0  0  0  0
 14 38  1  0  0  0  0
 14 39  1  0  0  0  0
 15 16  1  0  0  0  0
 15 40  1  0  0  0  0
 16 17  2  0  0  0  0
 16 18  1  0  0  0  0
 18 19  2  0  0  0  0
 18 28  1  0  0  0  0
 19 20  1  0  0  0  0
 19 41  1  0  0  0  0
 20 21  2  0  0  0  0
 20 42  1  0  0  0  0
 21 22  1  0  0  0  0
 21 27  1  0  0  0  0
 22 23  2  0  0  0  0
 22 43  1  0  0  0  0
 23 24  1  0  0  0  0
 23 44  1  0  0  0  0
 24 25  2  0  0  0  0
 25 26  1  0  0  0  0
 25 27  1  0  0  0  0
 26 45  1  0  0  0  0
 27 28  2  0  0  0  0
 29 30  2  0  0  0  0
 29 46  1  0  0  0  0
 30 47  1  0  0  0  0
M  END
$$$$
