
 OpenBabel01122422403D

 57 60  0  0  0  0  0  0  0  0999 V2000
    2.9798    0.1363   -1.0445 O   0  0  0  0  0  0  0  0  0  0  0  0
    2.4147    0.0331    0.0351 C   0  0  0  0  0  0  0  0  0  0  0  0
    1.0650   -0.1554    0.1730 N   0  0  0  0  0  0  0  0  0  0  0  0
    0.1831   -0.2088   -0.9769 C   0  0  0  0  0  0  0  0  0  0  0  0
   -0.3042    1.1593   -1.3107 C   0  0  0  0  0  0  0  0  0  0  0  0
   -1.4443    1.6348   -0.7874 N   0  0  0  0  0  0  0  0  0  0  0  0
   -1.5866    2.9150   -1.3012 O   0  0  0  0  0  0  0  0  0  0  0  0
   -0.5328    3.1977   -2.1146 C   0  0  0  0  0  0  0  0  0  0  0  0
   -0.5102    4.5362   -2.7482 C   0  0  0  0  0  0  0  0  0  0  0  0
   -1.2052    4.3921   -3.9833 O   0  0  0  0  0  0  0  0  0  0  0  0
   -1.2604    5.4768   -4.8127 C   0  0  0  0  0  0  0  0  0  0  0  0
   -1.9804    5.2507   -5.9908 C   0  0  0  0  0  0  0  0  0  0  0  0
   -2.1174    6.2562   -6.9510 C   0  0  0  0  0  0  0  0  0  0  0  0
   -1.5311    7.5027   -6.7409 C   0  0  0  0  0  0  0  0  0  0  0  0
   -0.8153    7.7405   -5.5683 C   0  0  0  0  0  0  0  0  0  0  0  0
   -0.6842    6.7324   -4.6124 C   0  0  0  0  0  0  0  0  0  0  0  0
    0.0107    7.0134   -3.5020 F   0  0  0  0  0  0  0  0  0  0  0  0
    0.3036    2.1095   -2.1618 C   0  0  0  0  0  0  0  0  0  0  0  0
    3.0703    0.0202    1.2305 N   0  0  0  0  0  0  0  0  0  0  0  0
    4.5060    0.2308    1.3292 C   0  0  0  0  0  0  0  0  0  0  0  0
    4.8705    0.2232    2.7863 C   0  0  0  0  0  0  0  0  0  0  0  0
    4.0290    0.5993    3.7406 N   0  0  0  0  0  0  0  0  0  0  0  0
    4.7241    0.5284    4.9117 C   0  0  0  0  0  0  0  0  0  0  0  0
    5.9990    0.0921    4.6848 C   0  0  0  0  0  0  0  0  0  0  0  0
    6.0929   -0.1303    3.3338 N   0  0  0  0  0  0  0  0  0  0  0  0
    7.2935   -0.6003    2.6491 C   0  0  0  0  0  0  0  0  0  0  0  0
    8.1965   -1.5014    3.5144 C   0  0  0  0  0  0  0  0  0  0  0  0
    9.4446   -1.9766    2.8142 C   0  0  0  0  0  0  0  0  0  0  0  0
   10.6512   -1.2722    2.9471 C   0  0  0  0  0  0  0  0  0  0  0  0
   11.8150   -1.7379    2.3325 C   0  0  0  0  0  0  0  0  0  0  0  0
   11.7844   -2.9083    1.5774 C   0  0  0  0  0  0  0  0  0  0  0  0
   10.5906   -3.6135    1.4366 C   0  0  0  0  0  0  0  0  0  0  0  0
    9.4261   -3.1515    2.0523 C   0  0  0  0  0  0  0  0  0  0  0  0
    0.6422    0.0834    1.0561 H   0  0  0  0  0  0  0  0  0  0  0  0
   -0.6548   -0.8673   -0.7217 H   0  0  0  0  0  0  0  0  0  0  0  0
    0.7082   -0.6479   -1.8327 H   0  0  0  0  0  0  0  0  0  0  0  0
    0.5327    4.8273   -2.9196 H   0  0  0  0  0  0  0  0  0  0  0  0
   -1.0096    5.2706   -2.1059 H   0  0  0  0  0  0  0  0  0  0  0  0
   -2.4419    4.2793   -6.1602 H   0  0  0  0  0  0  0  0  0  0  0  0
   -2.6809    6.0623   -7.8606 H   0  0  0  0  0  0  0  0  0  0  0  0
   -1.6329    8.2854   -7.4885 H   0  0  0  0  0  0  0  0  0  0  0  0
   -0.3552    8.7080   -5.3916 H   0  0  0  0  0  0  0  0  0  0  0  0
    1.2246    2.0100   -2.7174 H   0  0  0  0  0  0  0  0  0  0  0  0
    2.5530    0.1855    2.0843 H   0  0  0  0  0  0  0  0  0  0  0  0
    4.7362    1.2082    0.8914 H   0  0  0  0  0  0  0  0  0  0  0  0
    5.0114   -0.5473    0.7520 H   0  0  0  0  0  0  0  0  0  0  0  0
    4.2714    0.8001    5.8587 H   0  0  0  0  0  0  0  0  0  0  0  0
    6.8162   -0.0737    5.3754 H   0  0  0  0  0  0  0  0  0  0  0  0
    7.8374    0.2965    2.3306 H   0  0  0  0  0  0  0  0  0  0  0  0
    6.9777   -1.1453    1.7548 H   0  0  0  0  0  0  0  0  0  0  0  0
    7.6289   -2.3719    3.8684 H   0  0  0  0  0  0  0  0  0  0  0  0
    8.5141   -0.9730    4.4229 H   0  0  0  0  0  0  0  0  0  0  0  0
   10.7005   -0.3651    3.5462 H   0  0  0  0  0  0  0  0  0  0  0  0
   12.7488   -1.1933    2.4498 H   0  0  0  0  0  0  0  0  0  0  0  0
   12.6914   -3.2742    1.1033 H   0  0  0  0  0  0  0  0  0  0  0  0
   10.5689   -4.5312    0.8544 H   0  0  0  0  0  0  0  0  0  0  0  0
    8.5086   -3.7262    1.9474 H   0  0  0  0  0  0  0  0  0  0  0  0
  1  2  2  0  0  0  0
  2  3  1  0  0  0  0
  2 19  1  0  0  0  0
  3  4  1  0  0  0  0
  3 34  1  0  0  0  0
  4  5  1  0  0  0  0
  4 35  1  0  0  0  0
  4 36  1  0  0  0  0
  5  6  2  0  0  0  0
  5 18  1  0  0  0  0
  6  7  1  0  0  0  0
  7  8  1  0  0  0  0
  8  9  1  0  0  0  0
  8 18  2  0  0  0  0
  9 10  1  0  0  0  0
  9 37  1  0  0  0  0
  9 38  1  0  0  0  0
 10 11  1  0  0  0  0
 11 12  2  0  0  0  0
 11 16  1  0  0  0  0
 12 13  1  0  0  0  0
 12 39  1  0  0  0  0
 13 14  2  0  0  0  0
 13 40  1  0  0  0  0
 14 15  1  0  0  0  0
 14 41  1  0  0  0  0
 15 16  2  0  0  0  0
 15 42  1  0  0  0  0
 16 17  1  0  0  0  0
 18 43  1  0  0  0  0
 19 20  1  0  0  0  0
 19 44  1  0  0  0  0
 20 21  1  0  0  0  0
 20 45  1  0  0  0  0
 20 46  1  0  0  0  0
 21 22  2  0  0  0  0
 21 25  1  0  0  0  0
 22 23  1  0  0  0  0
 23 24  2  0  0  0  0
 23 47  1  0  0  0  0
 24 25  1  0  0  0  0
 24 48  1  0  0  0  0
 25 26  1  0  0  0  0
 26 27  1  0  0  0  0
 26 49  1  0  0  0  0
 26 50  1  0  0  0  0
 27 28  1  0  0  0  0
 27 51  1  0  0  0  0
 27 52  1  0  0  0  0
 28 29  2  0  0  0  0
 28 33  1  0  0  0  0
 29 30  1  0  0  0  0
 29 53  1  0  0  0  0
 30 31  2  0  0  0  0
 30 54  1  0  0  0  0
 31 32  1  0  0  0  0
 31 55  1  0  0  0  0
 32 33  2  0  0  0  0
 32 56  1  0  0  0  0
 33 57  1  0  0  0  0
M  END
$$$$
