
 OpenBabel01122422403D

 41 44  0  0  0  0  0  0  0  0999 V2000
    2.1330   -1.0877   -0.5663 O   0  0  0  0  0  0  0  0  0  0  0  0
    3.1221   -0.5710   -0.0564 C   0  0  0  0  0  0  0  0  0  0  0  0
    3.3087   -0.4597    1.3054 N   0  0  0  0  0  0  0  0  0  0  0  0
    2.4452   -0.8393    2.3393 C   0  0  0  0  0  0  0  0  0  0  0  0
    1.2548   -1.4801    2.1997 C   0  0  0  0  0  0  0  0  0  0  0  0
    0.4664   -1.8346    3.3037 N   0  0  0  0  0  0  0  0  0  0  0  0
   -0.8109   -2.4808    3.1454 C   0  0  0  0  0  0  0  0  0  0  0  0
   -1.7430   -1.9980    2.2164 C   0  0  0  0  0  0  0  0  0  0  0  0
   -3.0304   -2.5478    2.1441 C   0  0  0  0  0  0  0  0  0  0  0  0
   -3.3862   -3.6162    2.9656 C   0  0  0  0  0  0  0  0  0  0  0  0
   -2.4600   -4.1312    3.8682 C   0  0  0  0  0  0  0  0  0  0  0  0
   -1.1867   -3.5596    3.9661 C   0  0  0  0  0  0  0  0  0  0  0  0
    0.8613   -1.5112    4.6164 C   0  0  0  0  0  0  0  0  0  0  0  0
    0.2377   -1.7191    5.6564 O   0  0  0  0  0  0  0  0  0  0  0  0
    2.1508   -0.7832    4.7416 C   0  0  0  0  0  0  0  0  0  0  0  0
    2.8840   -0.4986    3.6611 C   0  0  0  0  0  0  0  0  0  0  0  0
    4.2310   -0.0817   -0.9172 C   0  0  0  0  0  0  0  0  0  0  0  0
    5.4456    0.3834   -0.5260 N   0  0  0  0  0  0  0  0  0  0  0  0
    6.1944    0.3379   -1.6901 N   0  0  0  0  0  0  0  0  0  0  0  0
    7.4621    0.8149   -2.0451 C   0  0  0  0  0  0  0  0  0  0  0  0
    7.9772    2.0558   -1.4265 C   0  0  0  0  0  0  0  0  0  0  0  0
    7.0844    2.7330   -0.6702 F   0  0  0  0  0  0  0  0  0  0  0  0
    9.0817    1.8400   -0.6714 F   0  0  0  0  0  0  0  0  0  0  0  0
    8.3643    2.9286   -2.4061 F   0  0  0  0  0  0  0  0  0  0  0  0
    8.0783    0.2942   -3.1310 C   0  0  0  0  0  0  0  0  0  0  0  0
    7.3322   -0.7544   -3.8672 C   0  0  0  0  0  0  0  0  0  0  0  0
    6.0723   -1.0089   -3.7098 N   0  0  0  0  0  0  0  0  0  0  0  0
    5.4780   -0.3701   -2.6644 C   0  0  0  0  0  0  0  0  0  0  0  0
    4.1681   -0.1689   -2.3271 C   0  0  0  0  0  0  0  0  0  0  0  0
    4.1957   -0.0275    1.5624 H   0  0  0  0  0  0  0  0  0  0  0  0
    0.8771   -1.7921    1.2386 H   0  0  0  0  0  0  0  0  0  0  0  0
   -1.5093   -1.1331    1.6017 H   0  0  0  0  0  0  0  0  0  0  0  0
   -3.7651   -2.1213    1.4668 H   0  0  0  0  0  0  0  0  0  0  0  0
   -4.3895   -4.0327    2.9207 H   0  0  0  0  0  0  0  0  0  0  0  0
   -2.7354   -4.9628    4.5128 H   0  0  0  0  0  0  0  0  0  0  0  0
   -0.4872   -3.9704    4.6919 H   0  0  0  0  0  0  0  0  0  0  0  0
    2.4357   -0.4908    5.7452 H   0  0  0  0  0  0  0  0  0  0  0  0
    3.8214    0.0409    3.7961 H   0  0  0  0  0  0  0  0  0  0  0  0
    9.0072    0.6556   -3.5535 H   0  0  0  0  0  0  0  0  0  0  0  0
    7.9051   -1.3111   -4.6271 H   0  0  0  0  0  0  0  0  0  0  0  0
    3.3044   -0.4065   -2.9284 H   0  0  0  0  0  0  0  0  0  0  0  0
  1  2  2  0  0  0  0
  2  3  1  0  0  0  0
  2 17  1  0  0  0  0
  3  4  1  0  0  0  0
  3 30  1  0  0  0  0
  4  5  2  0  0  0  0
  4 16  1  0  0  0  0
  5  6  1  0  0  0  0
  5 31  1  0  0  0  0
  6  7  1  0  0  0  0
  6 13  1  0  0  0  0
  7  8  2  0  0  0  0
  7 12  1  0  0  0  0
  8  9  1  0  0  0  0
  8 32  1  0  0  0  0
  9 10  2  0  0  0  0
  9 33  1  0  0  0  0
 10 11  1  0  0  0  0
 10 34  1  0  0  0  0
 11 12  2  0  0  0  0
 11 35  1  0  0  0  0
 12 36  1  0  0  0  0
 13 14  2  0  0  0  0
 13 15  1  0  0  0  0
 15 16  2  0  0  0  0
 15 37  1  0  0  0  0
 16 38  1  0  0  0  0
 17 18  2  0  0  0  0
 17 29  1  0  0  0  0
 18 19  1  0  0  0  0
 19 20  1  0  0  0  0
 19 28  1  0  0  0  0
 20 21  1  0  0  0  0
 20 25  2  0  0  0  0
 21 22  1  0  0  0  0
 21 23  1  0  0  0  0
 21 24  1  0  0  0  0
 25 26  1  0  0  0  0
 25 39  1  0  0  0  0
 26 27  2  0  0  0  0
 26 40  1  0  0  0  0
 27 28  1  0  0  0  0
 28 29  2  0  0  0  0
 29 41  1  0  0  0  0
M  END
$$$$
