
 OpenBabel01122422413D

 50 53  0  0  0  0  0  0  0  0999 V2000
    3.3497    1.5550   -1.1669 C   0  0  0  0  0  0  0  0  0  0  0  0
    2.5506    2.1248   -2.2382 N   0  0  0  0  0  0  0  0  0  0  0  0
    1.5334    2.9984   -1.9321 C   0  0  0  0  0  0  0  0  0  0  0  0
    0.7415    3.5559   -2.8577 C   0  0  0  0  0  0  0  0  0  0  0  0
   -0.2986    4.4327   -2.6129 N   0  0  0  0  0  0  0  0  0  0  0  0
   -0.7348    4.8566   -1.3874 C   0  0  0  0  0  0  0  0  0  0  0  0
   -0.2416    4.5249   -0.3078 O   0  0  0  0  0  0  0  0  0  0  0  0
   -1.8230    5.6906   -1.4496 N   0  0  0  0  0  0  0  0  0  0  0  0
   -2.2863    6.2266   -0.1915 C   0  0  0  0  0  0  0  0  0  0  0  0
   -3.4214    7.1963   -0.3484 C   0  0  0  0  0  0  0  0  0  0  0  0
   -4.7504    6.7632   -0.3026 C   0  0  0  0  0  0  0  0  0  0  0  0
   -5.7986    7.6913   -0.2812 C   0  0  0  0  0  0  0  0  0  0  0  0
   -5.5448    9.0713   -0.3191 C   0  0  0  0  0  0  0  0  0  0  0  0
   -6.6085   10.0585   -0.0197 C   0  0  0  0  0  0  0  0  0  0  0  0
   -6.2937   11.1574    0.7986 C   0  0  0  0  0  0  0  0  0  0  0  0
   -7.2863   11.9554    1.3488 C   0  0  0  0  0  0  0  0  0  0  0  0
   -8.6151   11.7603    0.9872 C   0  0  0  0  0  0  0  0  0  0  0  0
   -9.6161   12.5173    1.5889 C   0  0  0  0  0  0  0  0  0  0  0  0
  -10.7886   12.7688    0.8985 C   0  0  0  0  0  0  0  0  0  0  0  0
  -11.0991   11.9787   -0.2000 C   0  0  0  0  0  0  0  0  0  0  0  0
  -10.2422   10.9323   -0.5717 C   0  0  0  0  0  0  0  0  0  0  0  0
   -8.9442   10.8476   -0.0263 C   0  0  0  0  0  0  0  0  0  0  0  0
   -7.9495    9.9258   -0.4399 C   0  0  0  0  0  0  0  0  0  0  0  0
   -4.2064    9.4796   -0.4738 C   0  0  0  0  0  0  0  0  0  0  0  0
   -3.1564    8.5612   -0.4748 C   0  0  0  0  0  0  0  0  0  0  0  0
    1.0194    3.2023   -4.2838 C   0  0  0  0  0  0  0  0  0  0  0  0
    0.3589    3.6907   -5.1934 O   0  0  0  0  0  0  0  0  0  0  0  0
    2.0419    2.3178   -4.5009 N   0  0  0  0  0  0  0  0  0  0  0  0
    2.8453    1.7598   -3.5365 C   0  0  0  0  0  0  0  0  0  0  0  0
    3.7560    0.9944   -3.8360 O   0  0  0  0  0  0  0  0  0  0  0  0
    3.0097    1.8894   -0.1812 H   0  0  0  0  0  0  0  0  0  0  0  0
    4.3953    1.8507   -1.3069 H   0  0  0  0  0  0  0  0  0  0  0  0
    3.2890    0.4616   -1.2109 H   0  0  0  0  0  0  0  0  0  0  0  0
    1.4087    3.2018   -0.8769 H   0  0  0  0  0  0  0  0  0  0  0  0
   -0.8054    4.7333   -3.4376 H   0  0  0  0  0  0  0  0  0  0  0  0
   -2.0076    6.2111   -2.2894 H   0  0  0  0  0  0  0  0  0  0  0  0
   -1.4404    6.7232    0.3018 H   0  0  0  0  0  0  0  0  0  0  0  0
   -2.5837    5.3948    0.4598 H   0  0  0  0  0  0  0  0  0  0  0  0
   -4.9754    5.7030   -0.2107 H   0  0  0  0  0  0  0  0  0  0  0  0
   -6.8103    7.3182   -0.1504 H   0  0  0  0  0  0  0  0  0  0  0  0
   -5.2653   11.3794    1.0724 H   0  0  0  0  0  0  0  0  0  0  0  0
   -7.0034   12.7775    2.0016 H   0  0  0  0  0  0  0  0  0  0  0  0
   -9.4912   12.8776    2.6060 H   0  0  0  0  0  0  0  0  0  0  0  0
  -11.4563   13.5551    1.2389 H   0  0  0  0  0  0  0  0  0  0  0  0
  -12.0336   12.1449   -0.7278 H   0  0  0  0  0  0  0  0  0  0  0  0
  -10.5671   10.2368   -1.3397 H   0  0  0  0  0  0  0  0  0  0  0  0
   -8.2305    9.1133   -1.1070 H   0  0  0  0  0  0  0  0  0  0  0  0
   -3.9526   10.5351   -0.5277 H   0  0  0  0  0  0  0  0  0  0  0  0
   -2.1323    8.9269   -0.5011 H   0  0  0  0  0  0  0  0  0  0  0  0
    2.2405    2.0645   -5.4563 H   0  0  0  0  0  0  0  0  0  0  0  0
  1  2  1  0  0  0  0
  1 31  1  0  0  0  0
  1 32  1  0  0  0  0
  1 33  1  0  0  0  0
  2  3  1  0  0  0  0
  2 29  1  0  0  0  0
  3  4  2  0  0  0  0
  3 34  1  0  0  0  0
  4  5  1  0  0  0  0
  4 26  1  0  0  0  0
  5  6  1  0  0  0  0
  5 35  1  0  0  0  0
  6  7  2  0  0  0  0
  6  8  1  0  0  0  0
  8  9  1  0  0  0  0
  8 36  1  0  0  0  0
  9 10  1  0  0  0  0
  9 37  1  0  0  0  0
  9 38  1  0  0  0  0
 10 11  2  0  0  0  0
 10 25  1  0  0  0  0
 11 12  1  0  0  0  0
 11 39  1  0  0  0  0
 12 13  2  0  0  0  0
 12 40  1  0  0  0  0
 13 14  1  0  0  0  0
 13 24  1  0  0  0  0
 14 15  2  0  0  0  0
 14 23  1  0  0  0  0
 15 16  1  0  0  0  0
 15 41  1  0  0  0  0
 16 17  2  0  0  0  0
 16 42  1  0  0  0  0
 17 18  1  0  0  0  0
 17 22  1  0  0  0  0
 18 19  2  0  0  0  0
 18 43  1  0  0  0  0
 19 20  1  0  0  0  0
 19 44  1  0  0  0  0
 20 21  2  0  0  0  0
 20 45  1  0  0  0  0
 21 22  1  0  0  0  0
 21 46  1  0  0  0  0
 22 23  2  0  0  0  0
 23 47  1  0  0  0  0
 24 25  2  0  0  0  0
 24 48  1  0  0  0  0
 25 49  1  0  0  0  0
 26 27  2  0  0  0  0
 26 28  1  0  0  0  0
 28 29  1  0  0  0  0
 28 50  1  0  0  0  0
 29 30  2  0  0  0  0
M  END
$$$$
