
 OpenBabel01122422413D

 48 51  0  0  0  0  0  0  0  0999 V2000
    0.3230   -1.3891   -3.7841 O   0  0  0  0  0  0  0  0  0  0  0  0
    1.1727   -1.9300   -3.0938 C   0  0  0  0  0  0  0  0  0  0  0  0
    1.0192   -3.1571   -2.5508 O   0  0  0  0  0  0  0  0  0  0  0  0
    2.4540   -1.2775   -2.7437 C   0  0  0  0  0  0  0  0  0  0  0  0
    2.4806    0.1036   -2.5541 C   0  0  0  0  0  0  0  0  0  0  0  0
    3.6774    0.7166   -2.2080 C   0  0  0  0  0  0  0  0  0  0  0  0
    4.8286   -0.0605   -2.0238 C   0  0  0  0  0  0  0  0  0  0  0  0
    4.8453   -1.4603   -2.2402 C   0  0  0  0  0  0  0  0  0  0  0  0
    6.1051   -2.2490   -2.0434 C   0  0  0  0  0  0  0  0  0  0  0  0
    7.3264   -1.6133   -2.3848 C   0  0  0  0  0  0  0  0  0  0  0  0
    8.5721   -2.1742   -2.1064 C   0  0  0  0  0  0  0  0  0  0  0  0
    8.6388   -3.4029   -1.4776 C   0  0  0  0  0  0  0  0  0  0  0  0
    7.4660   -4.0891   -1.1761 C   0  0  0  0  0  0  0  0  0  0  0  0
    6.1893   -3.5613   -1.4774 C   0  0  0  0  0  0  0  0  0  0  0  0
    4.9663   -4.4176   -1.1925 C   0  0  0  0  0  0  0  0  0  0  0  0
    5.2058   -5.7240   -0.6157 N   0  0  0  0  0  0  0  0  0  0  0  0
    4.2051   -6.3875    0.0577 C   0  0  0  0  0  0  0  0  0  0  0  0
    3.1222   -5.8726    0.3238 O   0  0  0  0  0  0  0  0  0  0  0  0
    4.5423   -7.7687    0.4190 C   0  0  0  0  0  0  0  0  0  0  0  0
    3.7624   -8.6045    1.1890 C   0  0  0  0  0  0  0  0  0  0  0  0
    4.4598   -9.7705    1.2868 N   0  0  0  0  0  0  0  0  0  0  0  0
    5.6586   -9.6249    0.6233 C   0  0  0  0  0  0  0  0  0  0  0  0
    6.6856  -10.6717    0.6057 C   0  0  0  0  0  0  0  0  0  0  0  0
    7.5320  -10.8215   -0.4928 C   0  0  0  0  0  0  0  0  0  0  0  0
    8.4996  -11.8142   -0.4582 C   0  0  0  0  0  0  0  0  0  0  0  0
    8.6739  -12.6555    0.5832 N   0  0  0  0  0  0  0  0  0  0  0  0
    7.8580  -12.4921    1.6390 C   0  0  0  0  0  0  0  0  0  0  0  0
    6.8582  -11.5338    1.6965 C   0  0  0  0  0  0  0  0  0  0  0  0
    5.7103   -8.4321    0.0465 N   0  0  0  0  0  0  0  0  0  0  0  0
    3.6346   -2.0310   -2.6517 C   0  0  0  0  0  0  0  0  0  0  0  0
    1.6610   -3.4016   -1.8559 H   0  0  0  0  0  0  0  0  0  0  0  0
    1.5787    0.6983   -2.6843 H   0  0  0  0  0  0  0  0  0  0  0  0
    3.7205    1.7957   -2.0741 H   0  0  0  0  0  0  0  0  0  0  0  0
    5.7320    0.4632   -1.7116 H   0  0  0  0  0  0  0  0  0  0  0  0
    7.3217   -0.6403   -2.8760 H   0  0  0  0  0  0  0  0  0  0  0  0
    9.4817   -1.6400   -2.3635 H   0  0  0  0  0  0  0  0  0  0  0  0
    9.6010   -3.8384   -1.2252 H   0  0  0  0  0  0  0  0  0  0  0  0
    7.5734   -5.0508   -0.6804 H   0  0  0  0  0  0  0  0  0  0  0  0
    4.4772   -4.6508   -2.1425 H   0  0  0  0  0  0  0  0  0  0  0  0
    4.2719   -3.8678   -0.5481 H   0  0  0  0  0  0  0  0  0  0  0  0
    5.9289   -6.3294   -0.9908 H   0  0  0  0  0  0  0  0  0  0  0  0
    2.8024   -8.4563    1.6633 H   0  0  0  0  0  0  0  0  0  0  0  0
    4.1594  -10.6032    1.7734 H   0  0  0  0  0  0  0  0  0  0  0  0
    7.4371  -10.1831   -1.3663 H   0  0  0  0  0  0  0  0  0  0  0  0
    9.1764  -11.9687   -1.2933 H   0  0  0  0  0  0  0  0  0  0  0  0
    8.0358  -13.1675    2.4723 H   0  0  0  0  0  0  0  0  0  0  0  0
    6.2557  -11.4582    2.5944 H   0  0  0  0  0  0  0  0  0  0  0  0
    3.5906   -3.0684   -2.9552 H   0  0  0  0  0  0  0  0  0  0  0  0
  1  2  2  0  0  0  0
  2  3  1  0  0  0  0
  2  4  1  0  0  0  0
  3 31  1  0  0  0  0
  4  5  2  0  0  0  0
  4 30  1  0  0  0  0
  5  6  1  0  0  0  0
  5 32  1  0  0  0  0
  6  7  2  0  0  0  0
  6 33  1  0  0  0  0
  7  8  1  0  0  0  0
  7 34  1  0  0  0  0
  8  9  1  0  0  0  0
  8 30  2  0  0  0  0
  9 10  2  0  0  0  0
  9 14  1  0  0  0  0
 10 11  1  0  0  0  0
 10 35  1  0  0  0  0
 11 12  2  0  0  0  0
 11 36  1  0  0  0  0
 12 13  1  0  0  0  0
 12 37  1  0  0  0  0
 13 14  2  0  0  0  0
 13 38  1  0  0  0  0
 14 15  1  0  0  0  0
 15 16  1  0  0  0  0
 15 39  1  0  0  0  0
 15 40  1  0  0  0  0
 16 17  1  0  0  0  0
 16 41  1  0  0  0  0
 17 18  2  0  0  0  0
 17 19  1  0  0  0  0
 19 20  2  0  0  0  0
 19 29  1  0  0  0  0
 20 21  1  0  0  0  0
 20 42  1  0  0  0  0
 21 22  1  0  0  0  0
 21 43  1  0  0  0  0
 22 23  1  0  0  0  0
 22 29  2  0  0  0  0
 23 24  2  0  0  0  0
 23 28  1  0  0  0  0
 24 25  1  0  0  0  0
 24 44  1  0  0  0  0
 25 26  2  0  0  0  0
 25 45  1  0  0  0  0
 26 27  1  0  0  0  0
 27 28  2  0  0  0  0
 27 46  1  0  0  0  0
 28 47  1  0  0  0  0
 30 48  1  0  0  0  0
M  END
$$$$
