
 OpenBabel01122422413D

 41 44  0  0  0  0  0  0  0  0999 V2000
    1.1382   -0.3049   -0.1835 N   0  0  0  0  0  0  0  0  0  0  0  0
    2.2953   -0.2239   -0.1428 C   0  0  0  0  0  0  0  0  0  0  0  0
    3.7231   -0.1154   -0.0830 C   0  0  0  0  0  0  0  0  0  0  0  0
    4.4254   -1.0370   -0.7900 N   0  0  0  0  0  0  0  0  0  0  0  0
    5.7787   -0.9470   -0.7254 C   0  0  0  0  0  0  0  0  0  0  0  0
    6.4905    0.0182   -0.0012 C   0  0  0  0  0  0  0  0  0  0  0  0
    7.9670    0.0399    0.0416 C   0  0  0  0  0  0  0  0  0  0  0  0
    8.7453   -0.3745   -1.0580 C   0  0  0  0  0  0  0  0  0  0  0  0
   10.1501   -0.3775   -1.0147 C   0  0  0  0  0  0  0  0  0  0  0  0
   10.9279   -0.8069   -2.1830 C   0  0  0  0  0  0  0  0  0  0  0  0
   10.4667   -1.7834   -2.9844 N   0  0  0  0  0  0  0  0  0  0  0  0
   11.4390   -2.0015   -3.8977 N   0  0  0  0  0  0  0  0  0  0  0  0
   11.3115   -3.0158   -4.8866 C   0  0  0  0  0  0  0  0  0  0  0  0
   10.1144   -3.7282   -5.0053 C   0  0  0  0  0  0  0  0  0  0  0  0
   10.0404   -4.7259   -5.9634 C   0  0  0  0  0  0  0  0  0  0  0  0
   11.0608   -5.0584   -6.7830 N   0  0  0  0  0  0  0  0  0  0  0  0
   12.2031   -4.3560   -6.6511 C   0  0  0  0  0  0  0  0  0  0  0  0
   12.3759   -3.3294   -5.7370 C   0  0  0  0  0  0  0  0  0  0  0  0
   12.5035   -1.1523   -3.7064 C   0  0  0  0  0  0  0  0  0  0  0  0
   12.1988   -0.3393   -2.6305 C   0  0  0  0  0  0  0  0  0  0  0  0
   13.0024    0.7618   -2.1286 C   0  0  0  0  0  0  0  0  0  0  0  0
   12.5434    1.7441   -1.5663 O   0  0  0  0  0  0  0  0  0  0  0  0
   14.3392    0.6216   -2.3196 O   0  0  0  0  0  0  0  0  0  0  0  0
   10.7861    0.0163    0.1674 C   0  0  0  0  0  0  0  0  0  0  0  0
   10.0440    0.4586    1.2573 C   0  0  0  0  0  0  0  0  0  0  0  0
    8.6522    0.4694    1.1929 C   0  0  0  0  0  0  0  0  0  0  0  0
    5.7110    0.9508    0.7022 C   0  0  0  0  0  0  0  0  0  0  0  0
    4.3229    0.8782    0.6671 C   0  0  0  0  0  0  0  0  0  0  0  0
    3.6013    1.7668    1.3641 F   0  0  0  0  0  0  0  0  0  0  0  0
    6.2922   -1.7229   -1.2905 H   0  0  0  0  0  0  0  0  0  0  0  0
    8.2619   -0.6916   -1.9814 H   0  0  0  0  0  0  0  0  0  0  0  0
    9.2516   -3.5203   -4.3801 H   0  0  0  0  0  0  0  0  0  0  0  0
    9.1314   -5.3053   -6.1018 H   0  0  0  0  0  0  0  0  0  0  0  0
   13.0086   -4.6522   -7.3179 H   0  0  0  0  0  0  0  0  0  0  0  0
   13.3339   -2.8272   -5.7075 H   0  0  0  0  0  0  0  0  0  0  0  0
   13.3517   -1.1513   -4.3706 H   0  0  0  0  0  0  0  0  0  0  0  0
   14.5869   -0.2445   -2.6877 H   0  0  0  0  0  0  0  0  0  0  0  0
   11.8681   -0.0013    0.2614 H   0  0  0  0  0  0  0  0  0  0  0  0
   10.5522    0.7952    2.1575 H   0  0  0  0  0  0  0  0  0  0  0  0
    8.1114    0.8056    2.0749 H   0  0  0  0  0  0  0  0  0  0  0  0
    6.1659    1.7483    1.2830 H   0  0  0  0  0  0  0  0  0  0  0  0
  1  2  3  0  0  0  0
  2  3  1  0  0  0  0
  3  4  2  0  0  0  0
  3 28  1  0  0  0  0
  4  5  1  0  0  0  0
  5  6  2  0  0  0  0
  5 30  1  0  0  0  0
  6  7  1  0  0  0  0
  6 27  1  0  0  0  0
  7  8  2  0  0  0  0
  7 26  1  0  0  0  0
  8  9  1  0  0  0  0
  8 31  1  0  0  0  0
  9 10  1  0  0  0  0
  9 24  2  0  0  0  0
 10 11  2  0  0  0  0
 10 20  1  0  0  0  0
 11 12  1  0  0  0  0
 12 13  1  0  0  0  0
 12 19  1  0  0  0  0
 13 14  2  0  0  0  0
 13 18  1  0  0  0  0
 14 15  1  0  0  0  0
 14 32  1  0  0  0  0
 15 16  2  0  0  0  0
 15 33  1  0  0  0  0
 16 17  1  0  0  0  0
 17 18  2  0  0  0  0
 17 34  1  0  0  0  0
 18 35  1  0  0  0  0
 19 20  2  0  0  0  0
 19 36  1  0  0  0  0
 20 21  1  0  0  0  0
 21 22  2  0  0  0  0
 21 23  1  0  0  0  0
 23 37  1  0  0  0  0
 24 25  1  0  0  0  0
 24 38  1  0  0  0  0
 25 26  2  0  0  0  0
 25 39  1  0  0  0  0
 26 40  1  0  0  0  0
 27 28  2  0  0  0  0
 27 41  1  0  0  0  0
 28 29  1  0  0  0  0
M  END
$$$$
