
 OpenBabel01122422413D

 40 43  0  0  0  0  0  0  0  0999 V2000
    1.4031    0.7783   -0.8149 O   0  0  0  0  0  0  0  0  0  0  0  0
    2.1270   -0.2353   -0.0996 S   0  0  0  0  0  0  0  0  0  0  0  0
    3.3040   -0.8554   -0.6809 O   0  0  0  0  0  0  0  0  0  0  0  0
    2.6931    0.3182    1.4001 N   0  0  0  0  0  0  0  0  0  0  0  0
    2.4141    1.6888    1.6489 C   0  0  0  0  0  0  0  0  0  0  0  0
    3.2654    2.6947    1.2643 C   0  0  0  0  0  0  0  0  0  0  0  0
    2.8794    4.0212    1.4682 C   0  0  0  0  0  0  0  0  0  0  0  0
    1.6398    4.2934    2.0424 C   0  0  0  0  0  0  0  0  0  0  0  0
    1.1433    5.6675    2.3051 C   0  0  0  0  0  0  0  0  0  0  0  0
    1.4986    6.7482    1.4737 C   0  0  0  0  0  0  0  0  0  0  0  0
    1.0744    8.0509    1.7557 C   0  0  0  0  0  0  0  0  0  0  0  0
    0.2767    8.2866    2.8656 C   0  0  0  0  0  0  0  0  0  0  0  0
   -0.1125    9.5362    3.1465 F   0  0  0  0  0  0  0  0  0  0  0  0
   -0.1214    7.2412    3.6864 C   0  0  0  0  0  0  0  0  0  0  0  0
    0.3045    5.9383    3.4013 C   0  0  0  0  0  0  0  0  0  0  0  0
    0.8346    3.2726    2.4096 N   0  0  0  0  0  0  0  0  0  0  0  0
    1.2255    1.9650    2.1934 N   0  0  0  0  0  0  0  0  0  0  0  0
    0.9883   -1.5706    0.3041 C   0  0  0  0  0  0  0  0  0  0  0  0
    1.3583   -2.8674   -0.1002 C   0  0  0  0  0  0  0  0  0  0  0  0
    0.5822   -3.9666    0.2482 C   0  0  0  0  0  0  0  0  0  0  0  0
   -0.4906   -3.7858    1.1104 C   0  0  0  0  0  0  0  0  0  0  0  0
   -1.2121   -4.8589    1.4662 F   0  0  0  0  0  0  0  0  0  0  0  0
   -0.8811   -2.5110    1.5191 C   0  0  0  0  0  0  0  0  0  0  0  0
   -1.9577   -2.3475    2.3908 C   0  0  0  0  0  0  0  0  0  0  0  0
   -2.6000   -1.1830    2.5834 N   0  0  0  0  0  0  0  0  0  0  0  0
   -2.1163   -0.1191    1.9115 C   0  0  0  0  0  0  0  0  0  0  0  0
   -0.9296   -0.1422    1.1888 C   0  0  0  0  0  0  0  0  0  0  0  0
   -0.2397   -1.3605    1.0042 C   0  0  0  0  0  0  0  0  0  0  0  0
    3.6760    0.0908    1.4567 H   0  0  0  0  0  0  0  0  0  0  0  0
    4.2289    2.4809    0.7979 H   0  0  0  0  0  0  0  0  0  0  0  0
    3.5510    4.8259    1.1844 H   0  0  0  0  0  0  0  0  0  0  0  0
    2.1082    6.5931    0.5850 H   0  0  0  0  0  0  0  0  0  0  0  0
    1.3644    8.8796    1.1176 H   0  0  0  0  0  0  0  0  0  0  0  0
   -0.7524    7.4426    4.5454 H   0  0  0  0  0  0  0  0  0  0  0  0
   -0.0142    5.1309    4.0610 H   0  0  0  0  0  0  0  0  0  0  0  0
    2.2443   -3.0326   -0.7131 H   0  0  0  0  0  0  0  0  0  0  0  0
    0.8037   -4.9579   -0.1321 H   0  0  0  0  0  0  0  0  0  0  0  0
   -2.3425   -3.1852    2.9682 H   0  0  0  0  0  0  0  0  0  0  0  0
   -2.7320    0.7725    1.9566 H   0  0  0  0  0  0  0  0  0  0  0  0
   -0.6061    0.7816    0.7154 H   0  0  0  0  0  0  0  0  0  0  0  0
  1  2  2  0  0  0  0
  2  3  2  0  0  0  0
  2  4  1  0  0  0  0
  2 18  1  0  0  0  0
  4  5  1  0  0  0  0
  4 29  1  0  0  0  0
  5  6  2  0  0  0  0
  5 17  1  0  0  0  0
  6  7  1  0  0  0  0
  6 30  1  0  0  0  0
  7  8  2  0  0  0  0
  7 31  1  0  0  0  0
  8  9  1  0  0  0  0
  8 16  1  0  0  0  0
  9 10  2  0  0  0  0
  9 15  1  0  0  0  0
 10 11  1  0  0  0  0
 10 32  1  0  0  0  0
 11 12  2  0  0  0  0
 11 33  1  0  0  0  0
 12 13  1  0  0  0  0
 12 14  1  0  0  0  0
 14 15  2  0  0  0  0
 14 34  1  0  0  0  0
 15 35  1  0  0  0  0
 16 17  2  0  0  0  0
 18 19  2  0  0  0  0
 18 28  1  0  0  0  0
 19 20  1  0  0  0  0
 19 36  1  0  0  0  0
 20 21  2  0  0  0  0
 20 37  1  0  0  0  0
 21 22  1  0  0  0  0
 21 23  1  0  0  0  0
 23 24  2  0  0  0  0
 23 28  1  0  0  0  0
 24 25  1  0  0  0  0
 24 38  1  0  0  0  0
 25 26  2  0  0  0  0
 26 27  1  0  0  0  0
 26 39  1  0  0  0  0
 27 28  2  0  0  0  0
 27 40  1  0  0  0  0
M  END
$$$$
