
 OpenBabel01122422413D

 51 54  0  0  0  0  0  0  0  0999 V2000
    1.9080    0.1260    1.2602 C   0  0  0  0  0  0  0  0  0  0  0  0
    2.8785   -0.1866    0.2623 O   0  0  0  0  0  0  0  0  0  0  0  0
    3.3409    0.8685   -0.4890 C   0  0  0  0  0  0  0  0  0  0  0  0
    2.8610    2.1848   -0.3717 C   0  0  0  0  0  0  0  0  0  0  0  0
    3.3934    3.2172   -1.1458 C   0  0  0  0  0  0  0  0  0  0  0  0
    4.4122    2.9438   -2.0474 C   0  0  0  0  0  0  0  0  0  0  0  0
    4.8859    1.6356   -2.1792 C   0  0  0  0  0  0  0  0  0  0  0  0
    4.3503    0.5805   -1.4309 C   0  0  0  0  0  0  0  0  0  0  0  0
    4.8839   -0.7092   -1.6047 N   0  0  0  0  0  0  0  0  0  0  0  0
    5.7413   -1.0237   -2.6582 C   0  0  0  0  0  0  0  0  0  0  0  0
    5.9247   -2.5205   -2.8645 C   0  0  0  0  0  0  0  0  0  0  0  0
    5.0506   -3.2966   -2.4776 O   0  0  0  0  0  0  0  0  0  0  0  0
    7.1001   -2.9464   -3.4054 N   0  0  0  0  0  0  0  0  0  0  0  0
    7.3715   -4.3378   -3.7138 C   0  0  0  0  0  0  0  0  0  0  0  0
    8.6614   -4.4828   -4.5079 C   0  0  0  0  0  0  0  0  0  0  0  0
    8.9436   -3.4221   -5.3330 N   0  0  0  0  0  0  0  0  0  0  0  0
   10.1106   -3.4278   -6.0059 C   0  0  0  0  0  0  0  0  0  0  0  0
   11.0575   -4.4161   -5.8647 C   0  0  0  0  0  0  0  0  0  0  0  0
   10.7493   -5.5033   -5.0516 C   0  0  0  0  0  0  0  0  0  0  0  0
    9.5128   -5.5978   -4.3786 C   0  0  0  0  0  0  0  0  0  0  0  0
    9.1812   -6.8384   -3.6328 C   0  0  0  0  0  0  0  0  0  0  0  0
   10.1583   -7.5382   -2.8991 C   0  0  0  0  0  0  0  0  0  0  0  0
    9.8728   -8.7593   -2.2782 C   0  0  0  0  0  0  0  0  0  0  0  0
    8.5900   -9.2921   -2.3421 C   0  0  0  0  0  0  0  0  0  0  0  0
    7.5978   -8.6119   -3.0368 C   0  0  0  0  0  0  0  0  0  0  0  0
    7.8989   -7.4156   -3.6942 C   0  0  0  0  0  0  0  0  0  0  0  0
    6.2954   -0.0808   -3.4558 C   0  0  0  0  0  0  0  0  0  0  0  0
    7.1636   -0.1817   -4.6737 C   0  0  0  0  0  0  0  0  0  0  0  0
    5.9716    1.3492   -3.1360 C   0  0  0  0  0  0  0  0  0  0  0  0
    6.5525    2.2792   -3.6864 O   0  0  0  0  0  0  0  0  0  0  0  0
    1.7100   -0.7782    1.8426 H   0  0  0  0  0  0  0  0  0  0  0  0
    0.9652    0.4402    0.7986 H   0  0  0  0  0  0  0  0  0  0  0  0
    2.2762    0.8887    1.9564 H   0  0  0  0  0  0  0  0  0  0  0  0
    2.0645    2.4449    0.3184 H   0  0  0  0  0  0  0  0  0  0  0  0
    3.0064    4.2304   -1.0514 H   0  0  0  0  0  0  0  0  0  0  0  0
    4.8362    3.7424   -2.6523 H   0  0  0  0  0  0  0  0  0  0  0  0
    4.3364   -1.4896   -1.2382 H   0  0  0  0  0  0  0  0  0  0  0  0
    7.8482   -2.3078   -3.6312 H   0  0  0  0  0  0  0  0  0  0  0  0
    6.5297   -4.7388   -4.2899 H   0  0  0  0  0  0  0  0  0  0  0  0
    7.4334   -4.8529   -2.7520 H   0  0  0  0  0  0  0  0  0  0  0  0
   10.2709   -2.5877   -6.6757 H   0  0  0  0  0  0  0  0  0  0  0  0
   12.0046   -4.3607   -6.3897 H   0  0  0  0  0  0  0  0  0  0  0  0
   11.4866   -6.2996   -4.9703 H   0  0  0  0  0  0  0  0  0  0  0  0
   11.1705   -7.1480   -2.8117 H   0  0  0  0  0  0  0  0  0  0  0  0
   10.6570   -9.2952   -1.7496 H   0  0  0  0  0  0  0  0  0  0  0  0
    8.3650  -10.2391   -1.8593 H   0  0  0  0  0  0  0  0  0  0  0  0
    6.5902   -9.0169   -3.0877 H   0  0  0  0  0  0  0  0  0  0  0  0
    7.1055   -6.9556   -4.2779 H   0  0  0  0  0  0  0  0  0  0  0  0
    7.2369   -1.1775   -5.1047 H   0  0  0  0  0  0  0  0  0  0  0  0
    8.1736    0.1781   -4.4427 H   0  0  0  0  0  0  0  0  0  0  0  0
    6.7592    0.4436   -5.4788 H   0  0  0  0  0  0  0  0  0  0  0  0
  1  2  1  0  0  0  0
  1 31  1  0  0  0  0
  1 32  1  0  0  0  0
  1 33  1  0  0  0  0
  2  3  1  0  0  0  0
  3  4  2  0  0  0  0
  3  8  1  0  0  0  0
  4  5  1  0  0  0  0
  4 34  1  0  0  0  0
  5  6  2  0  0  0  0
  5 35  1  0  0  0  0
  6  7  1  0  0  0  0
  6 36  1  0  0  0  0
  7  8  2  0  0  0  0
  7 29  1  0  0  0  0
  8  9  1  0  0  0  0
  9 10  1  0  0  0  0
  9 37  1  0  0  0  0
 10 11  1  0  0  0  0
 10 27  2  0  0  0  0
 11 12  2  0  0  0  0
 11 13  1  0  0  0  0
 13 14  1  0  0  0  0
 13 38  1  0  0  0  0
 14 15  1  0  0  0  0
 14 39  1  0  0  0  0
 14 40  1  0  0  0  0
 15 16  2  0  0  0  0
 15 20  1  0  0  0  0
 16 17  1  0  0  0  0
 17 18  2  0  0  0  0
 17 41  1  0  0  0  0
 18 19  1  0  0  0  0
 18 42  1  0  0  0  0
 19 20  2  0  0  0  0
 19 43  1  0  0  0  0
 20 21  1  0  0  0  0
 21 22  2  0  0  0  0
 21 26  1  0  0  0  0
 22 23  1  0  0  0  0
 22 44  1  0  0  0  0
 23 24  2  0  0  0  0
 23 45  1  0  0  0  0
 24 25  1  0  0  0  0
 24 46  1  0  0  0  0
 25 26  2  0  0  0  0
 25 47  1  0  0  0  0
 26 48  1  0  0  0  0
 27 28  1  0  0  0  0
 27 29  1  0  0  0  0
 28 49  1  0  0  0  0
 28 50  1  0  0  0  0
 28 51  1  0  0  0  0
 29 30  2  0  0  0  0
M  END
$$$$
