
 OpenBabel01122422353D

 44 47  0  0  0  0  0  0  0  0999 V2000
    2.4284    1.8536   -0.1781 C   0  0  0  0  0  0  0  0  0  0  0  0
    3.7084    1.2309   -0.1959 O   0  0  0  0  0  0  0  0  0  0  0  0
    3.9633    0.3974   -1.2504 C   0  0  0  0  0  0  0  0  0  0  0  0
    3.3479    0.4712   -2.5051 C   0  0  0  0  0  0  0  0  0  0  0  0
    3.6829   -0.4168   -3.5309 C   0  0  0  0  0  0  0  0  0  0  0  0
    4.6631   -1.4067   -3.3502 C   0  0  0  0  0  0  0  0  0  0  0  0
    5.3322   -1.4925   -2.1134 C   0  0  0  0  0  0  0  0  0  0  0  0
    4.9460   -0.5962   -1.1119 C   0  0  0  0  0  0  0  0  0  0  0  0
    5.6550   -0.8374    0.0249 O   0  0  0  0  0  0  0  0  0  0  0  0
    6.4888   -1.8672   -0.2356 C   0  0  0  0  0  0  0  0  0  0  0  0
    6.3733   -2.3049   -1.5450 C   0  0  0  0  0  0  0  0  0  0  0  0
    7.2019   -3.3934   -2.0548 C   0  0  0  0  0  0  0  0  0  0  0  0
    7.9684   -4.0023   -1.3118 O   0  0  0  0  0  0  0  0  0  0  0  0
    7.1680   -3.6315   -3.4315 N   0  0  0  0  0  0  0  0  0  0  0  0
    7.8742   -4.6626   -4.0558 C   0  0  0  0  0  0  0  0  0  0  0  0
    7.9144   -5.9539   -3.6500 C   0  0  0  0  0  0  0  0  0  0  0  0
    7.1082   -6.4098   -2.4448 C   0  0  0  0  0  0  0  0  0  0  0  0
    6.4395   -6.7881   -1.4449 N   0  0  0  0  0  0  0  0  0  0  0  0
    8.8060   -6.9452   -4.2909 C   0  0  0  0  0  0  0  0  0  0  0  0
    8.7690   -8.1140   -3.9077 O   0  0  0  0  0  0  0  0  0  0  0  0
    9.6165   -6.4583   -5.3333 N   0  0  0  0  0  0  0  0  0  0  0  0
   10.5322   -7.3712   -5.9358 C   0  0  0  0  0  0  0  0  0  0  0  0
   10.5909   -7.4988   -7.3271 C   0  0  0  0  0  0  0  0  0  0  0  0
   11.3973   -8.4817   -7.9059 C   0  0  0  0  0  0  0  0  0  0  0  0
   12.1826   -9.3084   -7.1023 C   0  0  0  0  0  0  0  0  0  0  0  0
   12.1693   -9.1554   -5.7197 C   0  0  0  0  0  0  0  0  0  0  0  0
   11.3406   -8.1958   -5.1380 C   0  0  0  0  0  0  0  0  0  0  0  0
    9.4848   -5.1512   -5.7921 C   0  0  0  0  0  0  0  0  0  0  0  0
    8.6445   -4.2795   -5.2216 C   0  0  0  0  0  0  0  0  0  0  0  0
    2.3301    2.3946    0.7685 H   0  0  0  0  0  0  0  0  0  0  0  0
    1.6256    1.1100   -0.2249 H   0  0  0  0  0  0  0  0  0  0  0  0
    2.3306    2.5887   -0.9832 H   0  0  0  0  0  0  0  0  0  0  0  0
    2.6009    1.2322   -2.7149 H   0  0  0  0  0  0  0  0  0  0  0  0
    3.1743   -0.3353   -4.4873 H   0  0  0  0  0  0  0  0  0  0  0  0
    4.8683   -2.0922   -4.1624 H   0  0  0  0  0  0  0  0  0  0  0  0
    7.1086   -2.1835    0.5940 H   0  0  0  0  0  0  0  0  0  0  0  0
    6.9652   -2.8042   -3.9768 H   0  0  0  0  0  0  0  0  0  0  0  0
    9.9513   -6.8994   -7.9687 H   0  0  0  0  0  0  0  0  0  0  0  0
   11.3894   -8.6228   -8.9828 H   0  0  0  0  0  0  0  0  0  0  0  0
   12.7966  -10.0835   -7.5536 H   0  0  0  0  0  0  0  0  0  0  0  0
   12.7824   -9.7923   -5.0881 H   0  0  0  0  0  0  0  0  0  0  0  0
   11.3321   -8.1006   -4.0541 H   0  0  0  0  0  0  0  0  0  0  0  0
   10.1391   -4.8428   -6.6053 H   0  0  0  0  0  0  0  0  0  0  0  0
    8.6099   -3.2530   -5.5743 H   0  0  0  0  0  0  0  0  0  0  0  0
  1  2  1  0  0  0  0
  1 30  1  0  0  0  0
  1 31  1  0  0  0  0
  1 32  1  0  0  0  0
  2  3  1  0  0  0  0
  3  4  2  0  0  0  0
  3  8  1  0  0  0  0
  4  5  1  0  0  0  0
  4 33  1  0  0  0  0
  5  6  2  0  0  0  0
  5 34  1  0  0  0  0
  6  7  1  0  0  0  0
  6 35  1  0  0  0  0
  7  8  2  0  0  0  0
  7 11  1  0  0  0  0
  8  9  1  0  0  0  0
  9 10  1  0  0  0  0
 10 11  2  0  0  0  0
 10 36  1  0  0  0  0
 11 12  1  0  0  0  0
 12 13  2  0  0  0  0
 12 14  1  0  0  0  0
 14 15  1  0  0  0  0
 14 37  1  0  0  0  0
 15 16  2  0  0  0  0
 15 29  1  0  0  0  0
 16 17  1  0  0  0  0
 16 19  1  0  0  0  0
 17 18  3  0  0  0  0
 19 20  2  0  0  0  0
 19 21  1  0  0  0  0
 21 22  1  0  0  0  0
 21 28  1  0  0  0  0
 22 23  2  0  0  0  0
 22 27  1  0  0  0  0
 23 24  1  0  0  0  0
 23 38  1  0  0  0  0
 24 25  2  0  0  0  0
 24 39  1  0  0  0  0
 25 26  1  0  0  0  0
 25 40  1  0  0  0  0
 26 27  2  0  0  0  0
 26 41  1  0  0  0  0
 27 42  1  0  0  0  0
 28 29  2  0  0  0  0
 28 43  1  0  0  0  0
 29 44  1  0  0  0  0
M  END
$$$$
