
 OpenBabel01122422413D

 45 48  0  0  0  0  0  0  0  0999 V2000
    6.2013    4.4605   -3.5859 C   0  0  0  0  0  0  0  0  0  0  0  0
    5.4672    3.6349   -2.6932 O   0  0  0  0  0  0  0  0  0  0  0  0
    5.7001    3.7873   -1.3553 C   0  0  0  0  0  0  0  0  0  0  0  0
    6.6327    4.6385   -0.7608 C   0  0  0  0  0  0  0  0  0  0  0  0
    6.7390    4.7101    0.6406 C   0  0  0  0  0  0  0  0  0  0  0  0
    5.9088    3.9404    1.4618 C   0  0  0  0  0  0  0  0  0  0  0  0
    5.9611    4.0581    2.9130 C   0  0  0  0  0  0  0  0  0  0  0  0
    4.8751    3.8887    3.7465 C   0  0  0  0  0  0  0  0  0  0  0  0
    5.3468    4.1143    5.0009 N   0  0  0  0  0  0  0  0  0  0  0  0
    6.6903    4.3921    4.9209 C   0  0  0  0  0  0  0  0  0  0  0  0
    7.4754    4.7291    6.1544 C   0  0  0  0  0  0  0  0  0  0  0  0
    7.4877    3.6322    7.1129 N   0  0  0  0  0  0  0  0  0  0  0  0
    6.3807    3.2616    7.8467 C   0  0  0  0  0  0  0  0  0  0  0  0
    5.2722    3.7695    7.6851 O   0  0  0  0  0  0  0  0  0  0  0  0
    6.5734    2.1598    8.8479 C   0  0  0  0  0  0  0  0  0  0  0  0
    5.4446    1.5578    9.3880 C   0  0  0  0  0  0  0  0  0  0  0  0
    5.6189    0.5481   10.3239 C   0  0  0  0  0  0  0  0  0  0  0  0
    6.9087    0.2049   10.7337 C   0  0  0  0  0  0  0  0  0  0  0  0
    7.1054   -0.7526   11.7421 C   0  0  0  0  0  0  0  0  0  0  0  0
    8.3903   -1.0208   12.1873 C   0  0  0  0  0  0  0  0  0  0  0  0
    8.5708   -1.8889   13.1920 F   0  0  0  0  0  0  0  0  0  0  0  0
    9.4713   -0.3749   11.6102 C   0  0  0  0  0  0  0  0  0  0  0  0
   10.7121   -0.6208   12.0531 F   0  0  0  0  0  0  0  0  0  0  0  0
    9.2826    0.5488   10.5821 C   0  0  0  0  0  0  0  0  0  0  0  0
    8.0086    0.8743   10.1339 C   0  0  0  0  0  0  0  0  0  0  0  0
    7.8495    1.8203    9.1838 N   0  0  0  0  0  0  0  0  0  0  0  0
    7.0814    4.3940    3.6552 N   0  0  0  0  0  0  0  0  0  0  0  0
    4.9951    3.0665    0.8516 C   0  0  0  0  0  0  0  0  0  0  0  0
    4.8933    2.9935   -0.5403 C   0  0  0  0  0  0  0  0  0  0  0  0
    5.7868    4.3136   -4.5891 H   0  0  0  0  0  0  0  0  0  0  0  0
    7.2538    4.1623   -3.6108 H   0  0  0  0  0  0  0  0  0  0  0  0
    6.0939    5.5218   -3.3409 H   0  0  0  0  0  0  0  0  0  0  0  0
    7.2889    5.2661   -1.3547 H   0  0  0  0  0  0  0  0  0  0  0  0
    7.4575    5.3916    1.0895 H   0  0  0  0  0  0  0  0  0  0  0  0
    3.8373    3.6497    3.5599 H   0  0  0  0  0  0  0  0  0  0  0  0
    4.8251    4.0683    5.8726 H   0  0  0  0  0  0  0  0  0  0  0  0
    7.0393    5.6089    6.6430 H   0  0  0  0  0  0  0  0  0  0  0  0
    8.5138    4.9582    5.8955 H   0  0  0  0  0  0  0  0  0  0  0  0
    8.3742    3.2068    7.3649 H   0  0  0  0  0  0  0  0  0  0  0  0
    4.4484    1.8706    9.0924 H   0  0  0  0  0  0  0  0  0  0  0  0
    4.7447    0.0591   10.7483 H   0  0  0  0  0  0  0  0  0  0  0  0
    6.2700   -1.2683   12.2080 H   0  0  0  0  0  0  0  0  0  0  0  0
   10.1510    1.0377   10.1513 H   0  0  0  0  0  0  0  0  0  0  0  0
    4.3471    2.4318    1.4516 H   0  0  0  0  0  0  0  0  0  0  0  0
    4.1733    2.3156   -0.9902 H   0  0  0  0  0  0  0  0  0  0  0  0
  1  2  1  0  0  0  0
  1 30  1  0  0  0  0
  1 31  1  0  0  0  0
  1 32  1  0  0  0  0
  2  3  1  0  0  0  0
  3  4  2  0  0  0  0
  3 29  1  0  0  0  0
  4  5  1  0  0  0  0
  4 33  1  0  0  0  0
  5  6  2  0  0  0  0
  5 34  1  0  0  0  0
  6  7  1  0  0  0  0
  6 28  1  0  0  0  0
  7  8  2  0  0  0  0
  7 27  1  0  0  0  0
  8  9  1  0  0  0  0
  8 35  1  0  0  0  0
  9 10  1  0  0  0  0
  9 36  1  0  0  0  0
 10 11  1  0  0  0  0
 10 27  2  0  0  0  0
 11 12  1  0  0  0  0
 11 37  1  0  0  0  0
 11 38  1  0  0  0  0
 12 13  1  0  0  0  0
 12 39  1  0  0  0  0
 13 14  2  0  0  0  0
 13 15  1  0  0  0  0
 15 16  2  0  0  0  0
 15 26  1  0  0  0  0
 16 17  1  0  0  0  0
 16 40  1  0  0  0  0
 17 18  2  0  0  0  0
 17 41  1  0  0  0  0
 18 19  1  0  0  0  0
 18 25  1  0  0  0  0
 19 20  2  0  0  0  0
 19 42  1  0  0  0  0
 20 21  1  0  0  0  0
 20 22  1  0  0  0  0
 22 23  1  0  0  0  0
 22 24  2  0  0  0  0
 24 25  1  0  0  0  0
 24 43  1  0  0  0  0
 25 26  2  0  0  0  0
 28 29  2  0  0  0  0
 28 44  1  0  0  0  0
 29 45  1  0  0  0  0
M  END
$$$$
