
 OpenBabel01122422413D

 40 43  0  0  0  0  0  0  0  0999 V2000
    0.9840    0.1874    0.1464 O   0  0  0  0  0  0  0  0  0  0  0  0
    2.1994   -0.0074    0.0530 C   0  0  0  0  0  0  0  0  0  0  0  0
    2.8527   -0.5549   -1.0531 N   0  0  0  0  0  0  0  0  0  0  0  0
    2.2124   -0.8822   -2.2580 C   0  0  0  0  0  0  0  0  0  0  0  0
    2.9079   -1.6431   -3.1942 C   0  0  0  0  0  0  0  0  0  0  0  0
    2.2756   -2.0033   -4.4004 C   0  0  0  0  0  0  0  0  0  0  0  0
    2.9011   -2.8075   -5.3676 C   0  0  0  0  0  0  0  0  0  0  0  0
    2.2380   -3.1195   -6.5536 C   0  0  0  0  0  0  0  0  0  0  0  0
    2.8518   -3.8811   -7.4678 F   0  0  0  0  0  0  0  0  0  0  0  0
    0.9539   -2.6542   -6.8048 C   0  0  0  0  0  0  0  0  0  0  0  0
    0.3099   -1.8743   -5.8462 C   0  0  0  0  0  0  0  0  0  0  0  0
    0.9633   -1.5512   -4.6416 C   0  0  0  0  0  0  0  0  0  0  0  0
    0.3652   -0.7867   -3.6463 C   0  0  0  0  0  0  0  0  0  0  0  0
    0.9603   -0.4579   -2.4790 N   0  0  0  0  0  0  0  0  0  0  0  0
    3.1285    0.2548    1.2475 C   0  0  0  0  0  0  0  0  0  0  0  0
    2.8531   -0.6215    2.2699 F   0  0  0  0  0  0  0  0  0  0  0  0
    4.4397   -0.0053    0.9216 F   0  0  0  0  0  0  0  0  0  0  0  0
    2.9609    1.6266    1.7163 N   0  0  0  0  0  0  0  0  0  0  0  0
    2.0667    2.0823    2.6455 C   0  0  0  0  0  0  0  0  0  0  0  0
    2.3147    3.4344    2.7192 C   0  0  0  0  0  0  0  0  0  0  0  0
    1.5826    4.3844    3.5334 C   0  0  0  0  0  0  0  0  0  0  0  0
    0.9740    3.9882    4.7346 C   0  0  0  0  0  0  0  0  0  0  0  0
    0.1978    4.8864    5.4700 C   0  0  0  0  0  0  0  0  0  0  0  0
    0.0273    6.1918    5.0163 C   0  0  0  0  0  0  0  0  0  0  0  0
    0.6538    6.6075    3.8421 C   0  0  0  0  0  0  0  0  0  0  0  0
    1.4350    5.7104    3.1072 C   0  0  0  0  0  0  0  0  0  0  0  0
    3.3248    3.7516    1.8468 N   0  0  0  0  0  0  0  0  0  0  0  0
    3.7249    2.6359    1.2454 N   0  0  0  0  0  0  0  0  0  0  0  0
    3.8378   -0.7733   -0.9662 H   0  0  0  0  0  0  0  0  0  0  0  0
    3.9205   -1.9766   -2.9953 H   0  0  0  0  0  0  0  0  0  0  0  0
    3.9012   -3.2019   -5.2149 H   0  0  0  0  0  0  0  0  0  0  0  0
    0.4634   -2.9024   -7.7410 H   0  0  0  0  0  0  0  0  0  0  0  0
   -0.7000   -1.5191   -6.0401 H   0  0  0  0  0  0  0  0  0  0  0  0
   -0.6478   -0.4044   -3.7527 H   0  0  0  0  0  0  0  0  0  0  0  0
    1.3409    1.4357    3.1167 H   0  0  0  0  0  0  0  0  0  0  0  0
    1.0949    2.9755    5.1109 H   0  0  0  0  0  0  0  0  0  0  0  0
   -0.2802    4.5618    6.3906 H   0  0  0  0  0  0  0  0  0  0  0  0
   -0.5939    6.8850    5.5775 H   0  0  0  0  0  0  0  0  0  0  0  0
    0.5242    7.6277    3.4900 H   0  0  0  0  0  0  0  0  0  0  0  0
    1.9057    6.0474    2.1856 H   0  0  0  0  0  0  0  0  0  0  0  0
  1  2  2  0  0  0  0
  2  3  1  0  0  0  0
  2 15  1  0  0  0  0
  3  4  1  0  0  0  0
  3 29  1  0  0  0  0
  4  5  2  0  0  0  0
  4 14  1  0  0  0  0
  5  6  1  0  0  0  0
  5 30  1  0  0  0  0
  6  7  2  0  0  0  0
  6 12  1  0  0  0  0
  7  8  1  0  0  0  0
  7 31  1  0  0  0  0
  8  9  1  0  0  0  0
  8 10  2  0  0  0  0
 10 11  1  0  0  0  0
 10 32  1  0  0  0  0
 11 12  2  0  0  0  0
 11 33  1  0  0  0  0
 12 13  1  0  0  0  0
 13 14  2  0  0  0  0
 13 34  1  0  0  0  0
 15 16  1  0  0  0  0
 15 17  1  0  0  0  0
 15 18  1  0  0  0  0
 18 19  1  0  0  0  0
 18 28  1  0  0  0  0
 19 20  2  0  0  0  0
 19 35  1  0  0  0  0
 20 21  1  0  0  0  0
 20 27  1  0  0  0  0
 21 22  2  0  0  0  0
 21 26  1  0  0  0  0
 22 23  1  0  0  0  0
 22 36  1  0  0  0  0
 23 24  2  0  0  0  0
 23 37  1  0  0  0  0
 24 25  1  0  0  0  0
 24 38  1  0  0  0  0
 25 26  2  0  0  0  0
 25 39  1  0  0  0  0
 26 40  1  0  0  0  0
 27 28  2  0  0  0  0
M  END
$$$$
