
 OpenBabel01122422353D

 45 48  0  0  0  0  0  0  0  0999 V2000
    1.0859    0.0361    0.1468 O   0  0  0  0  0  0  0  0  0  0  0  0
    2.3071   -0.0268    0.0137 C   0  0  0  0  0  0  0  0  0  0  0  0
    3.0692   -1.0392    0.5592 N   0  0  0  0  0  0  0  0  0  0  0  0
    2.4331   -2.0427    1.4000 C   0  0  0  0  0  0  0  0  0  0  0  0
    3.1217   -3.3719    1.3144 C   0  0  0  0  0  0  0  0  0  0  0  0
    3.8773   -3.8014    0.2873 C   0  0  0  0  0  0  0  0  0  0  0  0
    4.4761   -5.1338    0.2931 C   0  0  0  0  0  0  0  0  0  0  0  0
    5.2613   -5.5857   -0.7707 C   0  0  0  0  0  0  0  0  0  0  0  0
    5.8209   -6.8640   -0.7308 C   0  0  0  0  0  0  0  0  0  0  0  0
    5.5965   -7.6953    0.3686 C   0  0  0  0  0  0  0  0  0  0  0  0
    4.8067   -7.2543    1.4310 C   0  0  0  0  0  0  0  0  0  0  0  0
    4.2509   -5.9760    1.3885 C   0  0  0  0  0  0  0  0  0  0  0  0
    3.4545   -5.5221    2.4434 N   0  0  0  0  0  0  0  0  0  0  0  0
    2.8727   -4.2817    2.4792 C   0  0  0  0  0  0  0  0  0  0  0  0
    2.1770   -3.9404    3.4289 O   0  0  0  0  0  0  0  0  0  0  0  0
    3.0229    1.0205   -0.7804 C   0  0  0  0  0  0  0  0  0  0  0  0
    2.2532    2.0351   -1.3471 C   0  0  0  0  0  0  0  0  0  0  0  0
    2.8771    2.9802   -2.1531 C   0  0  0  0  0  0  0  0  0  0  0  0
    4.2570    2.9341   -2.3236 C   0  0  0  0  0  0  0  0  0  0  0  0
    4.9808    3.8278   -3.0795 O   0  0  0  0  0  0  0  0  0  0  0  0
    4.5394    5.1302   -3.2049 C   0  0  0  0  0  0  0  0  0  0  0  0
    3.9290    5.8466   -2.1670 C   0  0  0  0  0  0  0  0  0  0  0  0
    3.4746    7.1490   -2.3847 C   0  0  0  0  0  0  0  0  0  0  0  0
    3.6912    7.7524   -3.6177 C   0  0  0  0  0  0  0  0  0  0  0  0
    3.2584    9.0025   -3.8227 F   0  0  0  0  0  0  0  0  0  0  0  0
    4.3580    7.0786   -4.6349 C   0  0  0  0  0  0  0  0  0  0  0  0
    4.7827    5.7628   -4.4290 C   0  0  0  0  0  0  0  0  0  0  0  0
    4.9427    1.8723   -1.7300 C   0  0  0  0  0  0  0  0  0  0  0  0
    4.3661    0.9089   -0.9558 N   0  0  0  0  0  0  0  0  0  0  0  0
    4.0712   -0.9045    0.5821 H   0  0  0  0  0  0  0  0  0  0  0  0
    1.3860   -2.1698    1.1002 H   0  0  0  0  0  0  0  0  0  0  0  0
    2.4437   -1.6417    2.4191 H   0  0  0  0  0  0  0  0  0  0  0  0
    4.0418   -3.1795   -0.5877 H   0  0  0  0  0  0  0  0  0  0  0  0
    5.4398   -4.9512   -1.6353 H   0  0  0  0  0  0  0  0  0  0  0  0
    6.4338   -7.2129   -1.5591 H   0  0  0  0  0  0  0  0  0  0  0  0
    6.0367   -8.6891    0.3952 H   0  0  0  0  0  0  0  0  0  0  0  0
    4.6358   -7.9097    2.2797 H   0  0  0  0  0  0  0  0  0  0  0  0
    3.2698   -6.1175    3.2378 H   0  0  0  0  0  0  0  0  0  0  0  0
    1.1826    2.0801   -1.1758 H   0  0  0  0  0  0  0  0  0  0  0  0
    2.2665    3.7423   -2.6294 H   0  0  0  0  0  0  0  0  0  0  0  0
    3.7815    5.3993   -1.1886 H   0  0  0  0  0  0  0  0  0  0  0  0
    2.9572    7.6925   -1.6016 H   0  0  0  0  0  0  0  0  0  0  0  0
    4.5379    7.5827   -5.5802 H   0  0  0  0  0  0  0  0  0  0  0  0
    5.2983    5.2338   -5.2278 H   0  0  0  0  0  0  0  0  0  0  0  0
    6.0156    1.7658   -1.8740 H   0  0  0  0  0  0  0  0  0  0  0  0
  1  2  2  0  0  0  0
  2  3  1  0  0  0  0
  2 16  1  0  0  0  0
  3  4  1  0  0  0  0
  3 30  1  0  0  0  0
  4  5  1  0  0  0  0
  4 31  1  0  0  0  0
  4 32  1  0  0  0  0
  5  6  2  0  0  0  0
  5 14  1  0  0  0  0
  6  7  1  0  0  0  0
  6 33  1  0  0  0  0
  7  8  2  0  0  0  0
  7 12  1  0  0  0  0
  8  9  1  0  0  0  0
  8 34  1  0  0  0  0
  9 10  2  0  0  0  0
  9 35  1  0  0  0  0
 10 11  1  0  0  0  0
 10 36  1  0  0  0  0
 11 12  2  0  0  0  0
 11 37  1  0  0  0  0
 12 13  1  0  0  0  0
 13 14  1  0  0  0  0
 13 38  1  0  0  0  0
 14 15  2  0  0  0  0
 16 17  2  0  0  0  0
 16 29  1  0  0  0  0
 17 18  1  0  0  0  0
 17 39  1  0  0  0  0
 18 19  2  0  0  0  0
 18 40  1  0  0  0  0
 19 20  1  0  0  0  0
 19 28  1  0  0  0  0
 20 21  1  0  0  0  0
 21 22  2  0  0  0  0
 21 27  1  0  0  0  0
 22 23  1  0  0  0  0
 22 41  1  0  0  0  0
 23 24  2  0  0  0  0
 23 42  1  0  0  0  0
 24 25  1  0  0  0  0
 24 26  1  0  0  0  0
 26 27  2  0  0  0  0
 26 43  1  0  0  0  0
 27 44  1  0  0  0  0
 28 29  2  0  0  0  0
 28 45  1  0  0  0  0
M  END
$$$$
