
 OpenBabel01122422413D

 42 45  0  0  0  0  0  0  0  0999 V2000
   -3.0133    0.3107    0.1778 N   0  0  0  0  0  0  0  0  0  0  0  0
   -1.8588    0.2328    0.1323 C   0  0  0  0  0  0  0  0  0  0  0  0
   -0.4331    0.1279    0.0838 C   0  0  0  0  0  0  0  0  0  0  0  0
    0.1606   -1.1374   -0.0044 C   0  0  0  0  0  0  0  0  0  0  0  0
    1.5531   -1.2738   -0.0336 C   0  0  0  0  0  0  0  0  0  0  0  0
    2.2312   -2.5922   -0.0957 C   0  0  0  0  0  0  0  0  0  0  0  0
    3.4456   -2.7618   -0.7817 C   0  0  0  0  0  0  0  0  0  0  0  0
    4.0754   -3.9984   -0.7716 C   0  0  0  0  0  0  0  0  0  0  0  0
    3.5841   -5.0836   -0.1435 N   0  0  0  0  0  0  0  0  0  0  0  0
    2.4136   -4.9198    0.5033 C   0  0  0  0  0  0  0  0  0  0  0  0
    1.7152   -3.7202    0.5547 C   0  0  0  0  0  0  0  0  0  0  0  0
    2.3070   -0.0853    0.0114 C   0  0  0  0  0  0  0  0  0  0  0  0
    1.7311    1.1967    0.0592 C   0  0  0  0  0  0  0  0  0  0  0  0
    2.4980    2.3903    0.0680 N   0  0  0  0  0  0  0  0  0  0  0  0
    3.8721    2.4651   -0.0491 C   0  0  0  0  0  0  0  0  0  0  0  0
    4.6236    1.5029   -0.2044 O   0  0  0  0  0  0  0  0  0  0  0  0
    4.4733    3.8239    0.0563 C   0  0  0  0  0  0  0  0  0  0  0  0
    5.8149    3.8690    0.0953 C   0  0  0  0  0  0  0  0  0  0  0  0
    6.5628    4.9841    0.3364 N   0  0  0  0  0  0  0  0  0  0  0  0
    5.9448    6.1961    0.6450 C   0  0  0  0  0  0  0  0  0  0  0  0
    6.6895    7.2468    1.1810 C   0  0  0  0  0  0  0  0  0  0  0  0
    6.0586    8.4430    1.4963 C   0  0  0  0  0  0  0  0  0  0  0  0
    6.7592    9.4117    2.0984 F   0  0  0  0  0  0  0  0  0  0  0  0
    4.7135    8.6397    1.2145 C   0  0  0  0  0  0  0  0  0  0  0  0
    3.9615    7.5814    0.7096 C   0  0  0  0  0  0  0  0  0  0  0  0
    2.6625    7.7926    0.4605 F   0  0  0  0  0  0  0  0  0  0  0  0
    4.5509    6.3367    0.4910 C   0  0  0  0  0  0  0  0  0  0  0  0
    3.7395    5.1138    0.2036 C   0  0  0  0  0  0  0  0  0  0  0  0
    2.5127    5.1327    0.1567 O   0  0  0  0  0  0  0  0  0  0  0  0
    0.3482    1.2904    0.1132 C   0  0  0  0  0  0  0  0  0  0  0  0
   -0.4745   -2.0226   -0.0508 H   0  0  0  0  0  0  0  0  0  0  0  0
    3.9158   -1.9449   -1.3217 H   0  0  0  0  0  0  0  0  0  0  0  0
    5.0239   -4.1448   -1.2806 H   0  0  0  0  0  0  0  0  0  0  0  0
    2.0372   -5.8052    1.0076 H   0  0  0  0  0  0  0  0  0  0  0  0
    0.7957   -3.6769    1.1275 H   0  0  0  0  0  0  0  0  0  0  0  0
    3.3845   -0.1945    0.0300 H   0  0  0  0  0  0  0  0  0  0  0  0
    1.9935    3.2761    0.1450 H   0  0  0  0  0  0  0  0  0  0  0  0
    6.4241    2.9735   -0.0170 H   0  0  0  0  0  0  0  0  0  0  0  0
    7.5729    4.8957    0.3738 H   0  0  0  0  0  0  0  0  0  0  0  0
    7.7474    7.1315    1.3973 H   0  0  0  0  0  0  0  0  0  0  0  0
    4.2477    9.5969    1.4208 H   0  0  0  0  0  0  0  0  0  0  0  0
   -0.1401    2.2620    0.1778 H   0  0  0  0  0  0  0  0  0  0  0  0
  1  2  3  0  0  0  0
  2  3  1  0  0  0  0
  3  4  2  0  0  0  0
  3 30  1  0  0  0  0
  4  5  1  0  0  0  0
  4 31  1  0  0  0  0
  5  6  1  0  0  0  0
  5 12  2  0  0  0  0
  6  7  2  0  0  0  0
  6 11  1  0  0  0  0
  7  8  1  0  0  0  0
  7 32  1  0  0  0  0
  8  9  2  0  0  0  0
  8 33  1  0  0  0  0
  9 10  1  0  0  0  0
 10 11  2  0  0  0  0
 10 34  1  0  0  0  0
 11 35  1  0  0  0  0
 12 13  1  0  0  0  0
 12 36  1  0  0  0  0
 13 14  1  0  0  0  0
 13 30  2  0  0  0  0
 14 15  1  0  0  0  0
 14 37  1  0  0  0  0
 15 16  2  0  0  0  0
 15 17  1  0  0  0  0
 17 18  2  0  0  0  0
 17 28  1  0  0  0  0
 18 19  1  0  0  0  0
 18 38  1  0  0  0  0
 19 20  1  0  0  0  0
 19 39  1  0  0  0  0
 20 21  2  0  0  0  0
 20 27  1  0  0  0  0
 21 22  1  0  0  0  0
 21 40  1  0  0  0  0
 22 23  1  0  0  0  0
 22 24  2  0  0  0  0
 24 25  1  0  0  0  0
 24 41  1  0  0  0  0
 25 26  1  0  0  0  0
 25 27  2  0  0  0  0
 27 28  1  0  0  0  0
 28 29  2  0  0  0  0
 30 42  1  0  0  0  0
M  END
$$$$
