
 OpenBabel01122422413D

 46 49  0  0  1  0  0  0  0  0999 V2000
    2.9196    0.9972   -0.3905 O   0  0  0  0  0  0  0  0  0  0  0  0
    2.4242   -0.0972   -0.1735 C   0  0  0  0  0  0  0  0  0  0  0  0
    3.0923   -1.2248    0.1521 O   0  0  0  0  0  0  0  0  0  0  0  0
    4.5355   -1.1796    0.2417 C   0  0  3  0  0  0  0  0  0  0  0  0
    4.9490   -1.6601    1.6320 C   0  0  0  0  0  0  0  0  0  0  0  0
    6.1391   -1.1916    2.2132 C   0  0  0  0  0  0  0  0  0  0  0  0
    6.5027   -1.5970    3.4949 C   0  0  0  0  0  0  0  0  0  0  0  0
    7.6348   -1.1268    4.0350 F   0  0  0  0  0  0  0  0  0  0  0  0
    5.7094   -2.4722    4.2245 C   0  0  0  0  0  0  0  0  0  0  0  0
    4.5459   -2.9765    3.6503 C   0  0  0  0  0  0  0  0  0  0  0  0
    4.1739   -2.5823    2.3606 C   0  0  0  0  0  0  0  0  0  0  0  0
    5.1501   -2.0363   -0.8678 C   0  0  0  0  0  0  0  0  0  0  0  0
    6.4451   -1.7613   -1.3164 C   0  0  0  0  0  0  0  0  0  0  0  0
    7.0212   -2.5840   -2.2818 C   0  0  0  0  0  0  0  0  0  0  0  0
    6.2956   -3.6572   -2.7804 C   0  0  0  0  0  0  0  0  0  0  0  0
    5.0166   -3.8622   -2.2948 C   0  0  0  0  0  0  0  0  0  0  0  0
    4.4305   -3.0829   -1.3571 N   0  0  0  0  0  0  0  0  0  0  0  0
    0.9599   -0.3446   -0.1929 C   0  0  0  0  0  0  0  0  0  0  0  0
    0.4430   -1.5521    0.0330 C   0  0  0  0  0  0  0  0  0  0  0  0
   -1.0111   -1.7848    0.0784 C   0  0  0  0  0  0  0  0  0  0  0  0
   -1.3671   -2.9493    0.2479 O   0  0  0  0  0  0  0  0  0  0  0  0
   -1.8261   -0.6565   -0.0824 N   0  0  0  0  0  0  0  0  0  0  0  0
   -3.2576   -0.7103    0.0494 C   0  0  0  0  0  0  0  0  0  0  0  0
   -3.8971   -1.7506    0.7427 C   0  0  0  0  0  0  0  0  0  0  0  0
   -5.2911   -1.8267    0.8363 C   0  0  0  0  0  0  0  0  0  0  0  0
   -6.0818   -0.8549    0.2372 C   0  0  0  0  0  0  0  0  0  0  0  0
   -5.4754    0.2072   -0.4278 C   0  0  0  0  0  0  0  0  0  0  0  0
   -4.0772    0.2883   -0.5080 C   0  0  0  0  0  0  0  0  0  0  0  0
   -1.3113    0.5908   -0.4157 N   0  0  0  0  0  0  0  0  0  0  0  0
   -0.0228    0.7136   -0.4608 C   0  0  0  0  0  0  0  0  0  0  0  0
    4.8837   -0.1466    0.1179 H   0  0  0  0  0  0  0  0  0  0  0  0
    6.7947   -0.5063    1.6845 H   0  0  0  0  0  0  0  0  0  0  0  0
    6.0052   -2.7594    5.2283 H   0  0  0  0  0  0  0  0  0  0  0  0
    3.9237   -3.6749    4.2059 H   0  0  0  0  0  0  0  0  0  0  0  0
    3.2674   -3.0026    1.9271 H   0  0  0  0  0  0  0  0  0  0  0  0
    7.0108   -0.9258   -0.9169 H   0  0  0  0  0  0  0  0  0  0  0  0
    8.0305   -2.3919   -2.6354 H   0  0  0  0  0  0  0  0  0  0  0  0
    6.7190   -4.3202   -3.5274 H   0  0  0  0  0  0  0  0  0  0  0  0
    4.4099   -4.6887   -2.6549 H   0  0  0  0  0  0  0  0  0  0  0  0
    1.0446   -2.4341    0.2164 H   0  0  0  0  0  0  0  0  0  0  0  0
   -3.3289   -2.5220    1.2540 H   0  0  0  0  0  0  0  0  0  0  0  0
   -5.7493   -2.6512    1.3769 H   0  0  0  0  0  0  0  0  0  0  0  0
   -7.1649   -0.9250    0.2933 H   0  0  0  0  0  0  0  0  0  0  0  0
   -6.0914    0.9717   -0.8951 H   0  0  0  0  0  0  0  0  0  0  0  0
   -3.6401    1.1257   -1.0464 H   0  0  0  0  0  0  0  0  0  0  0  0
    0.3945    1.7017   -0.7244 H   0  0  0  0  0  0  0  0  0  0  0  0
  1  2  2  0  0  0  0
  2  3  1  0  0  0  0
  2 18  1  0  0  0  0
  3  4  1  0  0  0  0
  4  5  1  0  0  0  0
  4 12  1  0  0  0  0
  4 31  1  0  0  0  0
  5  6  2  0  0  0  0
  5 11  1  0  0  0  0
  6  7  1  0  0  0  0
  6 32  1  0  0  0  0
  7  8  1  0  0  0  0
  7  9  2  0  0  0  0
  9 10  1  0  0  0  0
  9 33  1  0  0  0  0
 10 11  2  0  0  0  0
 10 34  1  0  0  0  0
 11 35  1  0  0  0  0
 12 13  2  0  0  0  0
 12 17  1  0  0  0  0
 13 14  1  0  0  0  0
 13 36  1  0  0  0  0
 14 15  2  0  0  0  0
 14 37  1  0  0  0  0
 15 16  1  0  0  0  0
 15 38  1  0  0  0  0
 16 17  2  0  0  0  0
 16 39  1  0  0  0  0
 18 19  2  0  0  0  0
 18 30  1  0  0  0  0
 19 20  1  0  0  0  0
 19 40  1  0  0  0  0
 20 21  2  0  0  0  0
 20 22  1  0  0  0  0
 22 23  1  0  0  0  0
 22 29  1  0  0  0  0
 23 24  2  0  0  0  0
 23 28  1  0  0  0  0
 24 25  1  0  0  0  0
 24 41  1  0  0  0  0
 25 26  2  0  0  0  0
 25 42  1  0  0  0  0
 26 27  1  0  0  0  0
 26 43  1  0  0  0  0
 27 28  2  0  0  0  0
 27 44  1  0  0  0  0
 28 45  1  0  0  0  0
 29 30  2  0  0  0  0
 30 46  1  0  0  0  0
M  END
$$$$
