
 OpenBabel01122422413D

 53 56  0  0  0  0  0  0  0  0999 V2000
    7.0247   -0.8079   -2.1156 N   0  0  0  0  0  0  0  0  0  0  0  0
    6.5109    0.4405   -2.2918 C   0  0  0  0  0  0  0  0  0  0  0  0
    7.0857    1.2267   -3.0398 O   0  0  0  0  0  0  0  0  0  0  0  0
    5.2451    0.8062   -1.5861 C   0  0  0  0  0  0  0  0  0  0  0  0
    4.7690    2.1077   -1.8554 C   0  0  0  0  0  0  0  0  0  0  0  0
    3.5788    2.5781   -1.3041 C   0  0  0  0  0  0  0  0  0  0  0  0
    2.8449    1.7572   -0.4662 C   0  0  0  0  0  0  0  0  0  0  0  0
    3.3078    0.4746   -0.1746 C   0  0  0  0  0  0  0  0  0  0  0  0
    4.5012   -0.0312   -0.7305 C   0  0  0  0  0  0  0  0  0  0  0  0
    4.9691   -1.2978   -0.4194 O   0  0  0  0  0  0  0  0  0  0  0  0
    3.9428   -2.2305   -0.0603 C   0  0  0  0  0  0  0  0  0  0  0  0
    4.4604   -3.5605    0.4295 C   0  0  0  0  0  0  0  0  0  0  0  0
    5.2317   -3.6512    1.5979 C   0  0  0  0  0  0  0  0  0  0  0  0
    5.4976   -4.8946    2.1806 C   0  0  0  0  0  0  0  0  0  0  0  0
    4.9860   -6.0595    1.6094 C   0  0  0  0  0  0  0  0  0  0  0  0
    4.2225   -5.9743    0.4423 C   0  0  0  0  0  0  0  0  0  0  0  0
    3.6299   -7.1675   -0.1946 C   0  0  0  0  0  0  0  0  0  0  0  0
    3.5525   -7.2249   -1.4167 O   0  0  0  0  0  0  0  0  0  0  0  0
    3.1626   -8.1400    0.6564 N   0  0  0  0  0  0  0  0  0  0  0  0
    2.5193   -9.3100    0.1243 C   0  0  0  0  0  0  0  0  0  0  0  0
    1.1219   -9.4522    0.6141 C   0  0  0  0  0  0  0  0  0  0  0  0
    0.2351  -10.4714    0.3031 C   0  0  0  0  0  0  0  0  0  0  0  0
    0.2996  -11.6836   -0.5059 C   0  0  0  0  0  0  0  0  0  0  0  0
   -0.4873  -12.8002   -0.1972 C   0  0  0  0  0  0  0  0  0  0  0  0
   -0.3269  -14.0013   -0.8963 C   0  0  0  0  0  0  0  0  0  0  0  0
    0.6194  -14.1007   -1.9154 C   0  0  0  0  0  0  0  0  0  0  0  0
    1.3833  -12.9937   -2.2576 C   0  0  0  0  0  0  0  0  0  0  0  0
    1.2103  -11.7931   -1.5690 C   0  0  0  0  0  0  0  0  0  0  0  0
   -0.9214  -10.2309    0.9992 O   0  0  0  0  0  0  0  0  0  0  0  0
   -0.6659   -9.0803    1.6866 C   0  0  0  0  0  0  0  0  0  0  0  0
    0.5373   -8.5790    1.5146 N   0  0  0  0  0  0  0  0  0  0  0  0
    3.9817   -4.7359   -0.1583 C   0  0  0  0  0  0  0  0  0  0  0  0
    7.8633   -1.0535   -2.6210 H   0  0  0  0  0  0  0  0  0  0  0  0
    6.5881   -1.4853   -1.5085 H   0  0  0  0  0  0  0  0  0  0  0  0
    5.3316    2.7701   -2.5127 H   0  0  0  0  0  0  0  0  0  0  0  0
    3.2285    3.5819   -1.5289 H   0  0  0  0  0  0  0  0  0  0  0  0
    1.9138    2.1072   -0.0271 H   0  0  0  0  0  0  0  0  0  0  0  0
    2.6932   -0.0924    0.5150 H   0  0  0  0  0  0  0  0  0  0  0  0
    3.2826   -2.3750   -0.9248 H   0  0  0  0  0  0  0  0  0  0  0  0
    3.3487   -1.8728    0.7853 H   0  0  0  0  0  0  0  0  0  0  0  0
    5.5877   -2.7471    2.0886 H   0  0  0  0  0  0  0  0  0  0  0  0
    6.0810   -4.9519    3.0967 H   0  0  0  0  0  0  0  0  0  0  0  0
    5.1946   -7.0210    2.0705 H   0  0  0  0  0  0  0  0  0  0  0  0
    3.0288   -7.9435    1.6398 H   0  0  0  0  0  0  0  0  0  0  0  0
    3.1122  -10.1762    0.4342 H   0  0  0  0  0  0  0  0  0  0  0  0
    2.5195   -9.2579   -0.9660 H   0  0  0  0  0  0  0  0  0  0  0  0
   -1.2155  -12.7546    0.6097 H   0  0  0  0  0  0  0  0  0  0  0  0
   -0.9330  -14.8647   -0.6343 H   0  0  0  0  0  0  0  0  0  0  0  0
    0.7609  -15.0410   -2.4415 H   0  0  0  0  0  0  0  0  0  0  0  0
    2.1203  -13.0575   -3.0542 H   0  0  0  0  0  0  0  0  0  0  0  0
    1.8107  -10.9507   -1.8933 H   0  0  0  0  0  0  0  0  0  0  0  0
   -1.4661   -8.7029    2.3052 H   0  0  0  0  0  0  0  0  0  0  0  0
    3.3643   -4.6938   -1.0550 H   0  0  0  0  0  0  0  0  0  0  0  0
  1  2  1  0  0  0  0
  1 33  1  0  0  0  0
  1 34  1  0  0  0  0
  2  3  2  0  0  0  0
  2  4  1  0  0  0  0
  4  5  2  0  0  0  0
  4  9  1  0  0  0  0
  5  6  1  0  0  0  0
  5 35  1  0  0  0  0
  6  7  2  0  0  0  0
  6 36  1  0  0  0  0
  7  8  1  0  0  0  0
  7 37  1  0  0  0  0
  8  9  2  0  0  0  0
  8 38  1  0  0  0  0
  9 10  1  0  0  0  0
 10 11  1  0  0  0  0
 11 12  1  0  0  0  0
 11 39  1  0  0  0  0
 11 40  1  0  0  0  0
 12 13  2  0  0  0  0
 12 32  1  0  0  0  0
 13 14  1  0  0  0  0
 13 41  1  0  0  0  0
 14 15  2  0  0  0  0
 14 42  1  0  0  0  0
 15 16  1  0  0  0  0
 15 43  1  0  0  0  0
 16 17  1  0  0  0  0
 16 32  2  0  0  0  0
 17 18  2  0  0  0  0
 17 19  1  0  0  0  0
 19 20  1  0  0  0  0
 19 44  1  0  0  0  0
 20 21  1  0  0  0  0
 20 45  1  0  0  0  0
 20 46  1  0  0  0  0
 21 22  2  0  0  0  0
 21 31  1  0  0  0  0
 22 23  1  0  0  0  0
 22 29  1  0  0  0  0
 23 24  2  0  0  0  0
 23 28  1  0  0  0  0
 24 25  1  0  0  0  0
 24 47  1  0  0  0  0
 25 26  2  0  0  0  0
 25 48  1  0  0  0  0
 26 27  1  0  0  0  0
 26 49  1  0  0  0  0
 27 28  2  0  0  0  0
 27 50  1  0  0  0  0
 28 51  1  0  0  0  0
 29 30  1  0  0  0  0
 30 31  2  0  0  0  0
 30 52  1  0  0  0  0
 32 53  1  0  0  0  0
M  END
$$$$
