
 OpenBabel01122422413D

 48 51  0  0  0  0  0  0  0  0999 V2000
    5.8778    2.9501    4.0876 O   0  0  0  0  0  0  0  0  0  0  0  0
    5.4566    2.6622    2.9784 C   0  0  0  0  0  0  0  0  0  0  0  0
    5.6378    3.4667    1.9107 O   0  0  0  0  0  0  0  0  0  0  0  0
    4.6850    1.4234    2.6870 C   0  0  0  0  0  0  0  0  0  0  0  0
    4.0681    0.8383    3.7284 C   0  0  0  0  0  0  0  0  0  0  0  0
    3.3434   -0.3547    3.6188 N   0  0  0  0  0  0  0  0  0  0  0  0
    2.7038   -0.9419    4.7784 C   0  0  0  0  0  0  0  0  0  0  0  0
    2.4612   -2.3161    4.8654 C   0  0  0  0  0  0  0  0  0  0  0  0
    1.7995   -2.8760    5.9672 C   0  0  0  0  0  0  0  0  0  0  0  0
    1.3655   -2.0941    7.0477 C   0  0  0  0  0  0  0  0  0  0  0  0
    0.5907   -2.6901    8.1627 C   0  0  0  0  0  0  0  0  0  0  0  0
    0.7783   -4.0269    8.5540 C   0  0  0  0  0  0  0  0  0  0  0  0
   -0.0424   -4.6326    9.5104 C   0  0  0  0  0  0  0  0  0  0  0  0
   -1.0733   -3.9146   10.1235 C   0  0  0  0  0  0  0  0  0  0  0  0
   -2.0066   -4.5999   11.0946 C   0  0  0  0  0  0  0  0  0  0  0  0
   -1.4932   -4.6125   12.4580 N   0  0  0  0  0  0  0  0  0  0  0  0
   -1.8116   -3.5705   13.3147 C   0  0  0  0  0  0  0  0  0  0  0  0
   -1.3317   -3.5286   14.5620 C   0  0  0  0  0  0  0  0  0  0  0  0
   -0.4529   -4.5693   15.0304 C   0  0  0  0  0  0  0  0  0  0  0  0
   -0.1349   -5.5975   14.2346 C   0  0  0  0  0  0  0  0  0  0  0  0
   -0.6809   -5.6752   12.8487 C   0  0  0  0  0  0  0  0  0  0  0  0
   -0.3964   -6.6443   12.1486 O   0  0  0  0  0  0  0  0  0  0  0  0
   -1.2237   -2.5616    9.8071 C   0  0  0  0  0  0  0  0  0  0  0  0
   -0.4110   -1.9654    8.8344 C   0  0  0  0  0  0  0  0  0  0  0  0
    1.6553   -0.7241    6.9830 C   0  0  0  0  0  0  0  0  0  0  0  0
    2.3044   -0.1585    5.8716 C   0  0  0  0  0  0  0  0  0  0  0  0
    3.2200   -0.9866    2.3586 C   0  0  0  0  0  0  0  0  0  0  0  0
    2.5638   -1.9888    2.0815 O   0  0  0  0  0  0  0  0  0  0  0  0
    3.9450   -0.3448    1.2267 C   0  0  0  0  0  0  0  0  0  0  0  0
    4.6326    0.7897    1.3915 C   0  0  0  0  0  0  0  0  0  0  0  0
    5.1240    3.2358    1.1174 H   0  0  0  0  0  0  0  0  0  0  0  0
    4.1569    1.2726    4.7202 H   0  0  0  0  0  0  0  0  0  0  0  0
    2.7887   -3.0029    4.0898 H   0  0  0  0  0  0  0  0  0  0  0  0
    1.6071   -3.9468    5.9410 H   0  0  0  0  0  0  0  0  0  0  0  0
    1.5614   -4.6338    8.1041 H   0  0  0  0  0  0  0  0  0  0  0  0
    0.1200   -5.6803    9.7584 H   0  0  0  0  0  0  0  0  0  0  0  0
   -2.1824   -5.6298   10.7579 H   0  0  0  0  0  0  0  0  0  0  0  0
   -2.9909   -4.1141   11.0777 H   0  0  0  0  0  0  0  0  0  0  0  0
   -2.4662   -2.7920   12.9355 H   0  0  0  0  0  0  0  0  0  0  0  0
   -1.5849   -2.7163   15.2370 H   0  0  0  0  0  0  0  0  0  0  0  0
   -0.0550   -4.4981   16.0365 H   0  0  0  0  0  0  0  0  0  0  0  0
    0.5229   -6.3985   14.5415 H   0  0  0  0  0  0  0  0  0  0  0  0
   -1.9940   -1.9642   10.2884 H   0  0  0  0  0  0  0  0  0  0  0  0
   -0.6060   -0.9263    8.5803 H   0  0  0  0  0  0  0  0  0  0  0  0
    1.3655   -0.0598    7.7943 H   0  0  0  0  0  0  0  0  0  0  0  0
    2.4320    0.9203    5.8772 H   0  0  0  0  0  0  0  0  0  0  0  0
    3.8859   -0.8604    0.2754 H   0  0  0  0  0  0  0  0  0  0  0  0
    5.1828    1.2008    0.5535 H   0  0  0  0  0  0  0  0  0  0  0  0
  1  2  2  0  0  0  0
  2  3  1  0  0  0  0
  2  4  1  0  0  0  0
  3 31  1  0  0  0  0
  4  5  2  0  0  0  0
  4 30  1  0  0  0  0
  5  6  1  0  0  0  0
  5 32  1  0  0  0  0
  6  7  1  0  0  0  0
  6 27  1  0  0  0  0
  7  8  2  0  0  0  0
  7 26  1  0  0  0  0
  8  9  1  0  0  0  0
  8 33  1  0  0  0  0
  9 10  2  0  0  0  0
  9 34  1  0  0  0  0
 10 11  1  0  0  0  0
 10 25  1  0  0  0  0
 11 12  2  0  0  0  0
 11 24  1  0  0  0  0
 12 13  1  0  0  0  0
 12 35  1  0  0  0  0
 13 14  2  0  0  0  0
 13 36  1  0  0  0  0
 14 15  1  0  0  0  0
 14 23  1  0  0  0  0
 15 16  1  0  0  0  0
 15 37  1  0  0  0  0
 15 38  1  0  0  0  0
 16 17  1  0  0  0  0
 16 21  1  0  0  0  0
 17 18  2  0  0  0  0
 17 39  1  0  0  0  0
 18 19  1  0  0  0  0
 18 40  1  0  0  0  0
 19 20  2  0  0  0  0
 19 41  1  0  0  0  0
 20 21  1  0  0  0  0
 20 42  1  0  0  0  0
 21 22  2  0  0  0  0
 23 24  2  0  0  0  0
 23 43  1  0  0  0  0
 24 44  1  0  0  0  0
 25 26  2  0  0  0  0
 25 45  1  0  0  0  0
 26 46  1  0  0  0  0
 27 28  2  0  0  0  0
 27 29  1  0  0  0  0
 29 30  2  0  0  0  0
 29 47  1  0  0  0  0
 30 48  1  0  0  0  0
M  END
$$$$
