
 OpenBabel01122422413D

 51 54  0  0  0  0  0  0  0  0999 V2000
    2.2724    0.2195    0.7141 C   0  0  0  0  0  0  0  0  0  0  0  0
    1.0380   -0.0197   -0.1032 C   0  0  0  0  0  0  0  0  0  0  0  0
    0.3544   -1.2231    0.0121 C   0  0  0  0  0  0  0  0  0  0  0  0
   -0.7909   -1.4402   -0.7500 C   0  0  0  0  0  0  0  0  0  0  0  0
   -1.5449   -2.6343   -0.6984 N   0  0  0  0  0  0  0  0  0  0  0  0
   -1.2744   -3.7305    0.0988 C   0  0  0  0  0  0  0  0  0  0  0  0
   -0.3446   -3.8217    0.8954 O   0  0  0  0  0  0  0  0  0  0  0  0
   -2.1807   -4.9019   -0.0152 C   0  0  0  0  0  0  0  0  0  0  0  0
   -1.9059   -5.9973    0.8074 C   0  0  0  0  0  0  0  0  0  0  0  0
   -2.7059   -7.1345    0.7615 C   0  0  0  0  0  0  0  0  0  0  0  0
   -3.8089   -7.2038   -0.0930 C   0  0  0  0  0  0  0  0  0  0  0  0
   -4.6601   -8.3314   -0.1293 N   0  0  0  0  0  0  0  0  0  0  0  0
   -4.7161   -9.2878    0.8719 C   0  0  0  0  0  0  0  0  0  0  0  0
   -4.1320   -9.2323    1.9502 O   0  0  0  0  0  0  0  0  0  0  0  0
   -5.6009  -10.4563    0.6582 C   0  0  0  0  0  0  0  0  0  0  0  0
   -5.8930  -10.9800   -0.6065 C   0  0  0  0  0  0  0  0  0  0  0  0
   -6.6517  -12.1523   -0.7057 C   0  0  0  0  0  0  0  0  0  0  0  0
   -7.1175  -12.7870    0.4543 C   0  0  0  0  0  0  0  0  0  0  0  0
   -7.9027  -14.0354    0.3891 C   0  0  0  0  0  0  0  0  0  0  0  0
   -8.0943  -14.5552   -0.7070 O   0  0  0  0  0  0  0  0  0  0  0  0
   -8.3783  -14.5374    1.5979 N   0  0  0  0  0  0  0  0  0  0  0  0
   -9.2092  -15.7220    1.5857 C   0  0  0  0  0  0  0  0  0  0  0  0
   -8.1006  -13.9875    2.8400 C   0  0  0  0  0  0  0  0  0  0  0  0
   -8.5148  -14.4432    3.9045 O   0  0  0  0  0  0  0  0  0  0  0  0
   -7.3198  -12.8688    2.8527 N   0  0  0  0  0  0  0  0  0  0  0  0
   -6.8388  -12.2520    1.7038 C   0  0  0  0  0  0  0  0  0  0  0  0
   -6.0777  -11.0967    1.8129 C   0  0  0  0  0  0  0  0  0  0  0  0
   -4.0718   -6.1250   -0.9408 C   0  0  0  0  0  0  0  0  0  0  0  0
   -3.2657   -4.9816   -0.8877 C   0  0  0  0  0  0  0  0  0  0  0  0
   -3.5719   -3.9553   -1.6974 F   0  0  0  0  0  0  0  0  0  0  0  0
   -1.2158   -0.4338   -1.6116 C   0  0  0  0  0  0  0  0  0  0  0  0
   -0.4775    0.7369   -1.6677 C   0  0  0  0  0  0  0  0  0  0  0  0
    0.6358    0.9673   -0.9361 N   0  0  0  0  0  0  0  0  0  0  0  0
    2.5068   -0.6391    1.3534 H   0  0  0  0  0  0  0  0  0  0  0  0
    2.1294    1.0901    1.3603 H   0  0  0  0  0  0  0  0  0  0  0  0
    3.1286    0.3918    0.0559 H   0  0  0  0  0  0  0  0  0  0  0  0
    0.7414   -1.9634    0.6998 H   0  0  0  0  0  0  0  0  0  0  0  0
   -2.3553   -2.6829   -1.3066 H   0  0  0  0  0  0  0  0  0  0  0  0
   -1.0641   -5.9814    1.4987 H   0  0  0  0  0  0  0  0  0  0  0  0
   -2.4218   -7.9585    1.4095 H   0  0  0  0  0  0  0  0  0  0  0  0
   -5.3640   -8.3564   -0.8557 H   0  0  0  0  0  0  0  0  0  0  0  0
   -5.5066  -10.5259   -1.5145 H   0  0  0  0  0  0  0  0  0  0  0  0
   -6.8653  -12.5809   -1.6837 H   0  0  0  0  0  0  0  0  0  0  0  0
   -9.3504  -16.1213    0.5790 H   0  0  0  0  0  0  0  0  0  0  0  0
  -10.1860  -15.4648    2.0086 H   0  0  0  0  0  0  0  0  0  0  0  0
   -8.7514  -16.4896    2.2180 H   0  0  0  0  0  0  0  0  0  0  0  0
   -7.1223  -12.4857    3.7692 H   0  0  0  0  0  0  0  0  0  0  0  0
   -5.8334  -10.6926    2.7942 H   0  0  0  0  0  0  0  0  0  0  0  0
   -4.9118   -6.1347   -1.6282 H   0  0  0  0  0  0  0  0  0  0  0  0
   -2.1001   -0.5401   -2.2318 H   0  0  0  0  0  0  0  0  0  0  0  0
   -0.7682    1.5514   -2.3243 H   0  0  0  0  0  0  0  0  0  0  0  0
  1  2  1  0  0  0  0
  1 34  1  0  0  0  0
  1 35  1  0  0  0  0
  1 36  1  0  0  0  0
  2  3  2  0  0  0  0
  2 33  1  0  0  0  0
  3  4  1  0  0  0  0
  3 37  1  0  0  0  0
  4  5  1  0  0  0  0
  4 31  2  0  0  0  0
  5  6  1  0  0  0  0
  5 38  1  0  0  0  0
  6  7  2  0  0  0  0
  6  8  1  0  0  0  0
  8  9  2  0  0  0  0
  8 29  1  0  0  0  0
  9 10  1  0  0  0  0
  9 39  1  0  0  0  0
 10 11  2  0  0  0  0
 10 40  1  0  0  0  0
 11 12  1  0  0  0  0
 11 28  1  0  0  0  0
 12 13  1  0  0  0  0
 12 41  1  0  0  0  0
 13 14  2  0  0  0  0
 13 15  1  0  0  0  0
 15 16  2  0  0  0  0
 15 27  1  0  0  0  0
 16 17  1  0  0  0  0
 16 42  1  0  0  0  0
 17 18  2  0  0  0  0
 17 43  1  0  0  0  0
 18 19  1  0  0  0  0
 18 26  1  0  0  0  0
 19 20  2  0  0  0  0
 19 21  1  0  0  0  0
 21 22  1  0  0  0  0
 21 23  1  0  0  0  0
 22 44  1  0  0  0  0
 22 45  1  0  0  0  0
 22 46  1  0  0  0  0
 23 24  2  0  0  0  0
 23 25  1  0  0  0  0
 25 26  1  0  0  0  0
 25 47  1  0  0  0  0
 26 27  2  0  0  0  0
 27 48  1  0  0  0  0
 28 29  2  0  0  0  0
 28 49  1  0  0  0  0
 29 30  1  0  0  0  0
 31 32  1  0  0  0  0
 31 50  1  0  0  0  0
 32 33  2  0  0  0  0
 32 51  1  0  0  0  0
M  END
$$$$
