
 OpenBabel01122422413D

 45 48  0  0  0  0  0  0  0  0999 V2000
    5.6095   -2.8942   -0.2421 O   0  0  0  0  0  0  0  0  0  0  0  0
    4.9618   -1.6556    0.0830 S   0  0  0  0  0  0  0  0  0  0  0  0
    5.4699   -0.4012   -0.4488 O   0  0  0  0  0  0  0  0  0  0  0  0
    3.3657   -1.6501   -0.4091 N   0  0  0  0  0  0  0  0  0  0  0  0
    2.6096   -2.9036   -0.4918 C   0  0  0  0  0  0  0  0  0  0  0  0
    3.0663   -3.9371   -1.4975 C   0  0  0  0  0  0  0  0  0  0  0  0
    2.7100   -3.8638   -2.8407 C   0  0  0  0  0  0  0  0  0  0  0  0
    3.0464   -4.9351   -3.6766 C   0  0  0  0  0  0  0  0  0  0  0  0
    2.6785   -5.0280   -4.9988 O   0  0  0  0  0  0  0  0  0  0  0  0
    1.3980   -4.6906   -5.3811 C   0  0  0  0  0  0  0  0  0  0  0  0
    1.2505   -4.3001   -6.7191 C   0  0  0  0  0  0  0  0  0  0  0  0
    0.0034   -3.8988   -7.2057 C   0  0  0  0  0  0  0  0  0  0  0  0
   -1.0941   -3.8999   -6.3528 C   0  0  0  0  0  0  0  0  0  0  0  0
   -2.2823   -3.4794   -6.8071 F   0  0  0  0  0  0  0  0  0  0  0  0
   -0.9608   -4.3371   -5.0404 C   0  0  0  0  0  0  0  0  0  0  0  0
   -2.0226   -4.3464   -4.2225 F   0  0  0  0  0  0  0  0  0  0  0  0
    0.2738   -4.7584   -4.5543 C   0  0  0  0  0  0  0  0  0  0  0  0
    3.8512   -5.9608   -3.1927 C   0  0  0  0  0  0  0  0  0  0  0  0
    4.2105   -5.9230   -1.8624 C   0  0  0  0  0  0  0  0  0  0  0  0
    3.7839   -4.9752   -1.0035 N   0  0  0  0  0  0  0  0  0  0  0  0
    4.9420   -1.4785    1.9473 C   0  0  0  0  0  0  0  0  0  0  0  0
    5.6722   -0.3268    2.2612 C   0  0  0  0  0  0  0  0  0  0  0  0
    6.9766   -0.4771    2.7225 C   0  0  0  0  0  0  0  0  0  0  0  0
    7.4563   -1.7442    3.0528 C   0  0  0  0  0  0  0  0  0  0  0  0
    6.5732   -2.8242    3.1220 C   0  0  0  0  0  0  0  0  0  0  0  0
    6.9256   -4.0441    3.7120 C   0  0  0  0  0  0  0  0  0  0  0  0
    6.0510   -5.0292    4.0034 N   0  0  0  0  0  0  0  0  0  0  0  0
    4.7661   -4.8142    3.6560 C   0  0  0  0  0  0  0  0  0  0  0  0
    4.3321   -3.6925    2.9540 C   0  0  0  0  0  0  0  0  0  0  0  0
    5.2540   -2.6803    2.6379 C   0  0  0  0  0  0  0  0  0  0  0  0
    3.2398   -0.9834   -1.1674 H   0  0  0  0  0  0  0  0  0  0  0  0
    1.5731   -2.6332   -0.7331 H   0  0  0  0  0  0  0  0  0  0  0  0
    2.5692   -3.3567    0.5028 H   0  0  0  0  0  0  0  0  0  0  0  0
    2.1472   -3.0187   -3.2217 H   0  0  0  0  0  0  0  0  0  0  0  0
    2.1123   -4.3027   -7.3835 H   0  0  0  0  0  0  0  0  0  0  0  0
   -0.1161   -3.5808   -8.2368 H   0  0  0  0  0  0  0  0  0  0  0  0
    0.3306   -5.1225   -3.5342 H   0  0  0  0  0  0  0  0  0  0  0  0
    4.1819   -6.7693   -3.8325 H   0  0  0  0  0  0  0  0  0  0  0  0
    4.8616   -6.6780   -1.4300 H   0  0  0  0  0  0  0  0  0  0  0  0
    5.3601    0.6411    1.8709 H   0  0  0  0  0  0  0  0  0  0  0  0
    7.6419    0.3834    2.7517 H   0  0  0  0  0  0  0  0  0  0  0  0
    8.4967   -1.8614    3.3406 H   0  0  0  0  0  0  0  0  0  0  0  0
    7.9440   -4.2364    4.0254 H   0  0  0  0  0  0  0  0  0  0  0  0
    4.0709   -5.5825    3.9807 H   0  0  0  0  0  0  0  0  0  0  0  0
    3.2757   -3.5907    2.7348 H   0  0  0  0  0  0  0  0  0  0  0  0
  1  2  2  0  0  0  0
  2  3  2  0  0  0  0
  2  4  1  0  0  0  0
  2 21  1  0  0  0  0
  4  5  1  0  0  0  0
  4 31  1  0  0  0  0
  5  6  1  0  0  0  0
  5 32  1  0  0  0  0
  5 33  1  0  0  0  0
  6  7  2  0  0  0  0
  6 20  1  0  0  0  0
  7  8  1  0  0  0  0
  7 34  1  0  0  0  0
  8  9  1  0  0  0  0
  8 18  2  0  0  0  0
  9 10  1  0  0  0  0
 10 11  2  0  0  0  0
 10 17  1  0  0  0  0
 11 12  1  0  0  0  0
 11 35  1  0  0  0  0
 12 13  2  0  0  0  0
 12 36  1  0  0  0  0
 13 14  1  0  0  0  0
 13 15  1  0  0  0  0
 15 16  1  0  0  0  0
 15 17  2  0  0  0  0
 17 37  1  0  0  0  0
 18 19  1  0  0  0  0
 18 38  1  0  0  0  0
 19 20  2  0  0  0  0
 19 39  1  0  0  0  0
 21 22  2  0  0  0  0
 21 30  1  0  0  0  0
 22 23  1  0  0  0  0
 22 40  1  0  0  0  0
 23 24  2  0  0  0  0
 23 41  1  0  0  0  0
 24 25  1  0  0  0  0
 24 42  1  0  0  0  0
 25 26  2  0  0  0  0
 25 30  1  0  0  0  0
 26 27  1  0  0  0  0
 26 43  1  0  0  0  0
 27 28  2  0  0  0  0
 28 29  1  0  0  0  0
 28 44  1  0  0  0  0
 29 30  2  0  0  0  0
 29 45  1  0  0  0  0
M  END
$$$$
