
 OpenBabel01122422413D

 47 50  0  0  1  0  0  0  0  0999 V2000
    2.0947    1.1093    0.3392 N   0  0  0  0  0  0  0  0  0  0  0  0
    2.3483   -0.1273   -0.1928 C   0  0  0  0  0  0  0  0  0  0  0  0
    2.0258   -0.3771   -1.3533 O   0  0  0  0  0  0  0  0  0  0  0  0
    3.1257   -1.1096    0.7210 C   0  0  3  0  0  0  0  0  0  0  0  0
    2.7823   -2.4773    0.3786 N   0  0  0  0  0  0  0  0  0  0  0  0
    1.6264   -3.0502    0.8562 C   0  0  0  0  0  0  0  0  0  0  0  0
    0.8784   -2.4792    1.6441 O   0  0  0  0  0  0  0  0  0  0  0  0
    1.3548   -4.3728    0.3322 C   0  0  0  0  0  0  0  0  0  0  0  0
    2.1949   -5.2924   -0.2672 C   0  0  0  0  0  0  0  0  0  0  0  0
    1.4299   -6.4374   -0.5882 C   0  0  0  0  0  0  0  0  0  0  0  0
    0.1217   -6.2213   -0.1857 C   0  0  0  0  0  0  0  0  0  0  0  0
   -1.0697   -7.0841   -0.2933 C   0  0  0  0  0  0  0  0  0  0  0  0
   -0.9696   -8.3628   -0.8699 C   0  0  0  0  0  0  0  0  0  0  0  0
   -2.0857   -9.2023   -0.9776 C   0  0  0  0  0  0  0  0  0  0  0  0
   -3.3271   -8.7801   -0.5125 C   0  0  0  0  0  0  0  0  0  0  0  0
   -3.4517   -7.5165    0.0571 C   0  0  0  0  0  0  0  0  0  0  0  0
   -2.3352   -6.6836    0.1623 C   0  0  0  0  0  0  0  0  0  0  0  0
   -2.5079   -5.4722    0.7175 F   0  0  0  0  0  0  0  0  0  0  0  0
    0.1110   -4.9672    0.3975 N   0  0  0  0  0  0  0  0  0  0  0  0
    4.6347   -0.9078    0.6451 C   0  0  0  0  0  0  0  0  0  0  0  0
    5.2805   -0.4421   -0.5093 C   0  0  0  0  0  0  0  0  0  0  0  0
    6.6583   -0.1993   -0.5094 C   0  0  0  0  0  0  0  0  0  0  0  0
    7.4307   -0.4313    0.6375 C   0  0  0  0  0  0  0  0  0  0  0  0
    8.8065   -0.1457    0.6680 C   0  0  0  0  0  0  0  0  0  0  0  0
    9.5581   -0.3779    1.8212 C   0  0  0  0  0  0  0  0  0  0  0  0
    8.9478   -0.9138    2.9509 C   0  0  0  0  0  0  0  0  0  0  0  0
    7.5828   -1.2067    2.9340 C   0  0  0  0  0  0  0  0  0  0  0  0
    6.8073   -0.9577    1.7897 C   0  0  0  0  0  0  0  0  0  0  0  0
    5.4217   -1.2012    1.7734 C   0  0  0  0  0  0  0  0  0  0  0  0
    1.5455    1.7480   -0.2210 H   0  0  0  0  0  0  0  0  0  0  0  0
    2.1735    1.2933    1.3304 H   0  0  0  0  0  0  0  0  0  0  0  0
    2.7965   -0.9133    1.7495 H   0  0  0  0  0  0  0  0  0  0  0  0
    3.1377   -2.8268   -0.4999 H   0  0  0  0  0  0  0  0  0  0  0  0
    3.2557   -5.1665   -0.4406 H   0  0  0  0  0  0  0  0  0  0  0  0
    1.8100   -7.3304   -1.0664 H   0  0  0  0  0  0  0  0  0  0  0  0
   -0.0182   -8.7286   -1.2470 H   0  0  0  0  0  0  0  0  0  0  0  0
   -1.9776  -10.1880   -1.4253 H   0  0  0  0  0  0  0  0  0  0  0  0
   -4.1921   -9.4335   -0.5919 H   0  0  0  0  0  0  0  0  0  0  0  0
   -4.4130   -7.1692    0.4246 H   0  0  0  0  0  0  0  0  0  0  0  0
   -0.7044   -4.5262    0.8050 H   0  0  0  0  0  0  0  0  0  0  0  0
    4.7224   -0.2380   -1.4220 H   0  0  0  0  0  0  0  0  0  0  0  0
    7.1227    0.1887   -1.4141 H   0  0  0  0  0  0  0  0  0  0  0  0
    9.3018    0.2723   -0.2060 H   0  0  0  0  0  0  0  0  0  0  0  0
   10.6185   -0.1390    1.8365 H   0  0  0  0  0  0  0  0  0  0  0  0
    9.5316   -1.0985    3.8489 H   0  0  0  0  0  0  0  0  0  0  0  0
    7.1243   -1.6214    3.8289 H   0  0  0  0  0  0  0  0  0  0  0  0
    4.9415   -1.6065    2.6634 H   0  0  0  0  0  0  0  0  0  0  0  0
  1  2  1  0  0  0  0
  1 30  1  0  0  0  0
  1 31  1  0  0  0  0
  2  3  2  0  0  0  0
  2  4  1  0  0  0  0
  4  5  1  0  0  0  0
  4 20  1  0  0  0  0
  4 32  1  0  0  0  0
  5  6  1  0  0  0  0
  5 33  1  0  0  0  0
  6  7  2  0  0  0  0
  6  8  1  0  0  0  0
  8  9  2  0  0  0  0
  8 19  1  0  0  0  0
  9 10  1  0  0  0  0
  9 34  1  0  0  0  0
 10 11  2  0  0  0  0
 10 35  1  0  0  0  0
 11 12  1  0  0  0  0
 11 19  1  0  0  0  0
 12 13  2  0  0  0  0
 12 17  1  0  0  0  0
 13 14  1  0  0  0  0
 13 36  1  0  0  0  0
 14 15  2  0  0  0  0
 14 37  1  0  0  0  0
 15 16  1  0  0  0  0
 15 38  1  0  0  0  0
 16 17  2  0  0  0  0
 16 39  1  0  0  0  0
 17 18  1  0  0  0  0
 19 40  1  0  0  0  0
 20 21  2  0  0  0  0
 20 29  1  0  0  0  0
 21 22  1  0  0  0  0
 21 41  1  0  0  0  0
 22 23  2  0  0  0  0
 22 42  1  0  0  0  0
 23 24  1  0  0  0  0
 23 28  1  0  0  0  0
 24 25  2  0  0  0  0
 24 43  1  0  0  0  0
 25 26  1  0  0  0  0
 25 44  1  0  0  0  0
 26 27  2  0  0  0  0
 26 45  1  0  0  0  0
 27 28  1  0  0  0  0
 27 46  1  0  0  0  0
 28 29  2  0  0  0  0
 29 47  1  0  0  0  0
M  END
$$$$
