
 OpenBabel01122422413D

 44 47  0  0  0  0  0  0  0  0999 V2000
   -1.3030    0.2343    5.9562 N   0  0  0  0  0  0  0  0  0  0  0  0
   -1.3230   -0.3634    4.9594 C   0  0  0  0  0  0  0  0  0  0  0  0
   -1.3558   -1.1025    3.7266 C   0  0  0  0  0  0  0  0  0  0  0  0
   -2.6096   -1.4184    3.1974 C   0  0  0  0  0  0  0  0  0  0  0  0
   -2.7101   -2.1349    2.0116 C   0  0  0  0  0  0  0  0  0  0  0  0
   -1.5572   -2.5521    1.3236 C   0  0  0  0  0  0  0  0  0  0  0  0
   -1.7585   -3.3066    0.0224 C   0  0  0  0  0  0  0  0  0  0  0  0
   -1.1786   -4.6165    0.1079 O   0  0  0  0  0  0  0  0  0  0  0  0
   -2.0047   -5.6649   -0.1165 C   0  0  0  0  0  0  0  0  0  0  0  0
   -3.1999   -5.5991   -0.3600 O   0  0  0  0  0  0  0  0  0  0  0  0
   -1.2826   -6.9482   -0.0498 C   0  0  0  0  0  0  0  0  0  0  0  0
    0.0272   -7.0331    0.1831 C   0  0  0  0  0  0  0  0  0  0  0  0
    0.7163   -8.3334    0.2497 C   0  0  0  0  0  0  0  0  0  0  0  0
    1.9293   -8.2844    0.4534 O   0  0  0  0  0  0  0  0  0  0  0  0
   -0.0733   -9.4674    0.0367 N   0  0  0  0  0  0  0  0  0  0  0  0
    0.4683  -10.7943    0.0621 C   0  0  0  0  0  0  0  0  0  0  0  0
    1.6570  -11.0802    0.7494 C   0  0  0  0  0  0  0  0  0  0  0  0
    2.2421  -12.3457    0.6994 C   0  0  0  0  0  0  0  0  0  0  0  0
    1.6405  -13.3581   -0.0370 C   0  0  0  0  0  0  0  0  0  0  0  0
    0.4334  -13.1141   -0.6887 C   0  0  0  0  0  0  0  0  0  0  0  0
   -0.1602  -11.8473   -0.6235 C   0  0  0  0  0  0  0  0  0  0  0  0
   -1.4258   -9.4005   -0.2545 N   0  0  0  0  0  0  0  0  0  0  0  0
   -1.9712   -8.2277   -0.2704 C   0  0  0  0  0  0  0  0  0  0  0  0
   -0.2701   -2.2359    1.8458 C   0  0  0  0  0  0  0  0  0  0  0  0
    0.9298   -2.6169    1.2003 C   0  0  0  0  0  0  0  0  0  0  0  0
    2.1854   -2.3092    1.7251 C   0  0  0  0  0  0  0  0  0  0  0  0
    2.2807   -1.6013    2.9110 C   0  0  0  0  0  0  0  0  0  0  0  0
    1.1201   -1.2014    3.5704 C   0  0  0  0  0  0  0  0  0  0  0  0
   -0.1662   -1.5049    3.0646 C   0  0  0  0  0  0  0  0  0  0  0  0
   -3.5208   -1.1031    3.7071 H   0  0  0  0  0  0  0  0  0  0  0  0
   -3.7005   -2.3640    1.6200 H   0  0  0  0  0  0  0  0  0  0  0  0
   -1.2650   -2.7639   -0.7920 H   0  0  0  0  0  0  0  0  0  0  0  0
   -2.8223   -3.3440   -0.2374 H   0  0  0  0  0  0  0  0  0  0  0  0
    0.6678   -6.1727    0.3348 H   0  0  0  0  0  0  0  0  0  0  0  0
    2.1511  -10.3290    1.3583 H   0  0  0  0  0  0  0  0  0  0  0  0
    3.1727  -12.5255    1.2312 H   0  0  0  0  0  0  0  0  0  0  0  0
    2.1123  -14.3344   -0.1002 H   0  0  0  0  0  0  0  0  0  0  0  0
   -0.0396  -13.9062   -1.2634 H   0  0  0  0  0  0  0  0  0  0  0  0
   -1.0919  -11.6829   -1.1593 H   0  0  0  0  0  0  0  0  0  0  0  0
   -3.0536   -8.1619   -0.4733 H   0  0  0  0  0  0  0  0  0  0  0  0
    0.9095   -3.1714    0.2652 H   0  0  0  0  0  0  0  0  0  0  0  0
    3.0859   -2.6255    1.2049 H   0  0  0  0  0  0  0  0  0  0  0  0
    3.2552   -1.3574    3.3268 H   0  0  0  0  0  0  0  0  0  0  0  0
    1.2421   -0.6425    4.4978 H   0  0  0  0  0  0  0  0  0  0  0  0
  1  2  3  0  0  0  0
  2  3  1  0  0  0  0
  3  4  2  0  0  0  0
  3 29  1  0  0  0  0
  4  5  1  0  0  0  0
  4 30  1  0  0  0  0
  5  6  2  0  0  0  0
  5 31  1  0  0  0  0
  6  7  1  0  0  0  0
  6 24  1  0  0  0  0
  7  8  1  0  0  0  0
  7 32  1  0  0  0  0
  7 33  1  0  0  0  0
  8  9  1  0  0  0  0
  9 10  2  0  0  0  0
  9 11  1  0  0  0  0
 11 12  2  0  0  0  0
 11 23  1  0  0  0  0
 12 13  1  0  0  0  0
 12 34  1  0  0  0  0
 13 14  2  0  0  0  0
 13 15  1  0  0  0  0
 15 16  1  0  0  0  0
 15 22  1  0  0  0  0
 16 17  2  0  0  0  0
 16 21  1  0  0  0  0
 17 18  1  0  0  0  0
 17 35  1  0  0  0  0
 18 19  2  0  0  0  0
 18 36  1  0  0  0  0
 19 20  1  0  0  0  0
 19 37  1  0  0  0  0
 20 21  2  0  0  0  0
 20 38  1  0  0  0  0
 21 39  1  0  0  0  0
 22 23  2  0  0  0  0
 23 40  1  0  0  0  0
 24 25  2  0  0  0  0
 24 29  1  0  0  0  0
 25 26  1  0  0  0  0
 25 41  1  0  0  0  0
 26 27  2  0  0  0  0
 26 42  1  0  0  0  0
 27 28  1  0  0  0  0
 27 43  1  0  0  0  0
 28 29  2  0  0  0  0
 28 44  1  0  0  0  0
M  END
$$$$
