
 OpenBabel01122422413D

 40 43  0  0  0  0  0  0  0  0999 V2000
    1.6163   -0.9628    1.4508 N   0  0  0  0  0  0  0  0  0  0  0  0
    2.6345   -0.7037    0.9587 C   0  0  0  0  0  0  0  0  0  0  0  0
    3.8881   -0.3757    0.3731 C   0  0  0  0  0  0  0  0  0  0  0  0
    4.7631    0.5893    0.8063 C   0  0  0  0  0  0  0  0  0  0  0  0
    5.8615    0.5436   -0.0291 N   0  0  0  0  0  0  0  0  0  0  0  0
    7.0567    1.3067    0.0771 C   0  0  0  0  0  0  0  0  0  0  0  0
    7.2527    2.1507    1.1718 C   0  0  0  0  0  0  0  0  0  0  0  0
    8.4301    2.8890    1.2928 C   0  0  0  0  0  0  0  0  0  0  0  0
    9.4290    2.8172    0.3238 C   0  0  0  0  0  0  0  0  0  0  0  0
   10.6248    3.5623    0.3960 N   0  0  0  0  0  0  0  0  0  0  0  0
   10.9764    4.4841    1.3745 C   0  0  0  0  0  0  0  0  0  0  0  0
   10.2834    4.7953    2.3376 O   0  0  0  0  0  0  0  0  0  0  0  0
   12.2769    5.0779    1.1863 C   0  0  0  0  0  0  0  0  0  0  0  0
   12.9632    6.0083    1.9297 C   0  0  0  0  0  0  0  0  0  0  0  0
   14.2232    6.1338    1.2941 C   0  0  0  0  0  0  0  0  0  0  0  0
   15.3779    6.9204    1.7125 C   0  0  0  0  0  0  0  0  0  0  0  0
   16.6735    6.4893    1.3777 C   0  0  0  0  0  0  0  0  0  0  0  0
   17.7934    7.2071    1.8037 C   0  0  0  0  0  0  0  0  0  0  0  0
   17.6209    8.3617    2.5570 C   0  0  0  0  0  0  0  0  0  0  0  0
   18.6965    9.0463    2.9659 F   0  0  0  0  0  0  0  0  0  0  0  0
   16.3527    8.8137    2.8943 C   0  0  0  0  0  0  0  0  0  0  0  0
   15.2392    8.0899    2.4728 C   0  0  0  0  0  0  0  0  0  0  0  0
   14.0267    8.5496    2.8131 F   0  0  0  0  0  0  0  0  0  0  0  0
   14.2651    5.3507    0.2006 N   0  0  0  0  0  0  0  0  0  0  0  0
   13.0516    4.7001    0.1351 O   0  0  0  0  0  0  0  0  0  0  0  0
    9.2382    1.9647   -0.7721 C   0  0  0  0  0  0  0  0  0  0  0  0
    8.0599    1.2094   -0.8967 C   0  0  0  0  0  0  0  0  0  0  0  0
    5.6890   -0.3780   -1.0146 N   0  0  0  0  0  0  0  0  0  0  0  0
    4.5079   -0.9432   -0.7449 C   0  0  0  0  0  0  0  0  0  0  0  0
    4.6915    1.2823    1.6308 H   0  0  0  0  0  0  0  0  0  0  0  0
    6.5243    2.2572    1.9710 H   0  0  0  0  0  0  0  0  0  0  0  0
    8.5254    3.5105    2.1765 H   0  0  0  0  0  0  0  0  0  0  0  0
   11.2960    3.4227   -0.3507 H   0  0  0  0  0  0  0  0  0  0  0  0
   12.6093    6.4890    2.8315 H   0  0  0  0  0  0  0  0  0  0  0  0
   16.8184    5.5817    0.7940 H   0  0  0  0  0  0  0  0  0  0  0  0
   18.7931    6.8673    1.5552 H   0  0  0  0  0  0  0  0  0  0  0  0
   16.2315    9.7179    3.4785 H   0  0  0  0  0  0  0  0  0  0  0  0
    9.9954    1.8731   -1.5477 H   0  0  0  0  0  0  0  0  0  0  0  0
    7.9389    0.5576   -1.7600 H   0  0  0  0  0  0  0  0  0  0  0  0
    4.1536   -1.7452   -1.3806 H   0  0  0  0  0  0  0  0  0  0  0  0
  1  2  3  0  0  0  0
  2  3  1  0  0  0  0
  3  4  2  0  0  0  0
  3 29  1  0  0  0  0
  4  5  1  0  0  0  0
  4 30  1  0  0  0  0
  5  6  1  0  0  0  0
  5 28  1  0  0  0  0
  6  7  2  0  0  0  0
  6 27  1  0  0  0  0
  7  8  1  0  0  0  0
  7 31  1  0  0  0  0
  8  9  2  0  0  0  0
  8 32  1  0  0  0  0
  9 10  1  0  0  0  0
  9 26  1  0  0  0  0
 10 11  1  0  0  0  0
 10 33  1  0  0  0  0
 11 12  2  0  0  0  0
 11 13  1  0  0  0  0
 13 14  2  0  0  0  0
 13 25  1  0  0  0  0
 14 15  1  0  0  0  0
 14 34  1  0  0  0  0
 15 16  1  0  0  0  0
 15 24  2  0  0  0  0
 16 17  2  0  0  0  0
 16 22  1  0  0  0  0
 17 18  1  0  0  0  0
 17 35  1  0  0  0  0
 18 19  2  0  0  0  0
 18 36  1  0  0  0  0
 19 20  1  0  0  0  0
 19 21  1  0  0  0  0
 21 22  2  0  0  0  0
 21 37  1  0  0  0  0
 22 23  1  0  0  0  0
 24 25  1  0  0  0  0
 26 27  2  0  0  0  0
 26 38  1  0  0  0  0
 27 39  1  0  0  0  0
 28 29  2  0  0  0  0
 29 40  1  0  0  0  0
M  END
$$$$
