
 OpenBabel01122422413D

 42 45  0  0  0  0  0  0  0  0999 V2000
    2.7315   -1.3033   -1.1973 O   0  0  0  0  0  0  0  0  0  0  0  0
    3.4455   -0.8854   -0.2994 C   0  0  0  0  0  0  0  0  0  0  0  0
    3.4248   -1.2497    1.0396 N   0  0  0  0  0  0  0  0  0  0  0  0
    2.5005   -1.9799    1.7409 C   0  0  0  0  0  0  0  0  0  0  0  0
    1.3715   -2.4699    1.2211 C   0  0  0  0  0  0  0  0  0  0  0  0
    0.3864   -3.1956    2.0742 C   0  0  0  0  0  0  0  0  0  0  0  0
   -0.6545   -3.5368    1.5025 O   0  0  0  0  0  0  0  0  0  0  0  0
    0.7068   -3.3693    3.4385 N   0  0  0  0  0  0  0  0  0  0  0  0
   -0.2265   -4.0527    4.3182 C   0  0  0  0  0  0  0  0  0  0  0  0
   -1.1711   -4.9753    3.8337 C   0  0  0  0  0  0  0  0  0  0  0  0
   -2.0924   -5.6045    4.6787 C   0  0  0  0  0  0  0  0  0  0  0  0
   -2.0855   -5.3375    6.0419 C   0  0  0  0  0  0  0  0  0  0  0  0
   -1.1497   -4.4493    6.5583 C   0  0  0  0  0  0  0  0  0  0  0  0
   -0.2334   -3.8166    5.7079 C   0  0  0  0  0  0  0  0  0  0  0  0
    1.9011   -2.8386    3.9256 C   0  0  0  0  0  0  0  0  0  0  0  0
    2.7640   -2.1738    3.1460 C   0  0  0  0  0  0  0  0  0  0  0  0
    4.3968    0.2135   -0.4792 C   0  0  0  0  0  0  0  0  0  0  0  0
    4.6482    1.0144   -1.5786 C   0  0  0  0  0  0  0  0  0  0  0  0
    5.2272    2.1535   -1.0588 N   0  0  0  0  0  0  0  0  0  0  0  0
    5.5544    3.3620   -1.6648 C   0  0  0  0  0  0  0  0  0  0  0  0
    5.8680    4.4107   -0.8823 C   0  0  0  0  0  0  0  0  0  0  0  0
    5.7728    4.2655    0.5685 C   0  0  0  0  0  0  0  0  0  0  0  0
    5.5136    3.0761    1.1648 C   0  0  0  0  0  0  0  0  0  0  0  0
    5.2486    2.9727    2.6447 C   0  0  0  0  0  0  0  0  0  0  0  0
    4.8738    1.7317    3.0580 F   0  0  0  0  0  0  0  0  0  0  0  0
    6.3341    3.3132    3.3854 F   0  0  0  0  0  0  0  0  0  0  0  0
    4.2422    3.8091    3.0184 F   0  0  0  0  0  0  0  0  0  0  0  0
    5.3189    1.9531    0.3110 C   0  0  0  0  0  0  0  0  0  0  0  0
    5.0292    0.7208    0.6351 N   0  0  0  0  0  0  0  0  0  0  0  0
    4.1521   -0.7774    1.5813 H   0  0  0  0  0  0  0  0  0  0  0  0
    1.0823   -2.3518    0.1871 H   0  0  0  0  0  0  0  0  0  0  0  0
   -1.2067   -5.2541    2.7849 H   0  0  0  0  0  0  0  0  0  0  0  0
   -2.8165   -6.2993    4.2611 H   0  0  0  0  0  0  0  0  0  0  0  0
   -2.8078   -5.8186    6.6962 H   0  0  0  0  0  0  0  0  0  0  0  0
   -1.1405   -4.2328    7.6232 H   0  0  0  0  0  0  0  0  0  0  0  0
    0.4404   -3.0982    6.1649 H   0  0  0  0  0  0  0  0  0  0  0  0
    2.1490   -3.0034    4.9666 H   0  0  0  0  0  0  0  0  0  0  0  0
    3.6861   -1.7860    3.5789 H   0  0  0  0  0  0  0  0  0  0  0  0
    4.3155    0.9582   -2.6058 H   0  0  0  0  0  0  0  0  0  0  0  0
    5.5205    3.4128   -2.7462 H   0  0  0  0  0  0  0  0  0  0  0  0
    6.1122    5.3844   -1.2960 H   0  0  0  0  0  0  0  0  0  0  0  0
    5.8386    5.1767    1.1609 H   0  0  0  0  0  0  0  0  0  0  0  0
  1  2  2  0  0  0  0
  2  3  1  0  0  0  0
  2 17  1  0  0  0  0
  3  4  1  0  0  0  0
  3 30  1  0  0  0  0
  4  5  2  0  0  0  0
  4 16  1  0  0  0  0
  5  6  1  0  0  0  0
  5 31  1  0  0  0  0
  6  7  2  0  0  0  0
  6  8  1  0  0  0  0
  8  9  1  0  0  0  0
  8 15  1  0  0  0  0
  9 10  2  0  0  0  0
  9 14  1  0  0  0  0
 10 11  1  0  0  0  0
 10 32  1  0  0  0  0
 11 12  2  0  0  0  0
 11 33  1  0  0  0  0
 12 13  1  0  0  0  0
 12 34  1  0  0  0  0
 13 14  2  0  0  0  0
 13 35  1  0  0  0  0
 14 36  1  0  0  0  0
 15 16  2  0  0  0  0
 15 37  1  0  0  0  0
 16 38  1  0  0  0  0
 17 18  2  0  0  0  0
 17 29  1  0  0  0  0
 18 19  1  0  0  0  0
 18 39  1  0  0  0  0
 19 20  1  0  0  0  0
 19 28  1  0  0  0  0
 20 21  2  0  0  0  0
 20 40  1  0  0  0  0
 21 22  1  0  0  0  0
 21 41  1  0  0  0  0
 22 23  2  0  0  0  0
 22 42  1  0  0  0  0
 23 24  1  0  0  0  0
 23 28  1  0  0  0  0
 24 25  1  0  0  0  0
 24 26  1  0  0  0  0
 24 27  1  0  0  0  0
 28 29  2  0  0  0  0
M  END
$$$$
