
 OpenBabel01122422413D

 52 55  0  0  0  0  0  0  0  0999 V2000
    1.4320   -0.0280    1.4791 N   0  0  0  0  0  0  0  0  0  0  0  0
    2.5676   -0.0251    0.7757 C   0  0  0  0  0  0  0  0  0  0  0  0
    3.2861    1.0764    0.5812 N   0  0  0  0  0  0  0  0  0  0  0  0
    4.3371    0.6599   -0.1478 N   0  0  0  0  0  0  0  0  0  0  0  0
    5.2976    1.6383   -0.6509 C   0  0  0  0  0  0  0  0  0  0  0  0
    6.4788    1.8173    0.2724 C   0  0  0  0  0  0  0  0  0  0  0  0
    7.7834    1.5719   -0.1819 C   0  0  0  0  0  0  0  0  0  0  0  0
    8.8755    1.7361    0.6736 C   0  0  0  0  0  0  0  0  0  0  0  0
    8.6787    2.1579    1.9869 C   0  0  0  0  0  0  0  0  0  0  0  0
    7.3916    2.4321    2.4426 C   0  0  0  0  0  0  0  0  0  0  0  0
    6.2990    2.2687    1.5897 C   0  0  0  0  0  0  0  0  0  0  0  0
    4.3124   -0.6849   -0.4071 C   0  0  0  0  0  0  0  0  0  0  0  0
    3.1563   -1.1730    0.1830 C   0  0  0  0  0  0  0  0  0  0  0  0
    2.6390   -2.5337    0.1826 C   0  0  0  0  0  0  0  0  0  0  0  0
    1.4460   -2.7837    0.3337 O   0  0  0  0  0  0  0  0  0  0  0  0
    3.5888   -3.5207    0.0245 N   0  0  0  0  0  0  0  0  0  0  0  0
    3.2386   -4.9186    0.0072 C   0  0  0  0  0  0  0  0  0  0  0  0
    3.2185   -5.5600    1.3773 C   0  0  0  0  0  0  0  0  0  0  0  0
    2.0214   -5.6163    2.1180 C   0  0  0  0  0  0  0  0  0  0  0  0
    1.9224   -6.3065    3.3432 C   0  0  0  0  0  0  0  0  0  0  0  0
    0.6314   -6.4181    4.0715 C   0  0  0  0  0  0  0  0  0  0  0  0
    0.5733   -6.4687    5.4765 C   0  0  0  0  0  0  0  0  0  0  0  0
   -0.6496   -6.5779    6.1408 C   0  0  0  0  0  0  0  0  0  0  0  0
   -0.7159   -6.6340    7.5030 O   0  0  0  0  0  0  0  0  0  0  0  0
   -1.8441   -6.6334    5.4374 C   0  0  0  0  0  0  0  0  0  0  0  0
   -1.8167   -6.5899    4.0483 C   0  0  0  0  0  0  0  0  0  0  0  0
   -0.5935   -6.4924    3.3752 C   0  0  0  0  0  0  0  0  0  0  0  0
    3.0922   -6.9125    3.8309 C   0  0  0  0  0  0  0  0  0  0  0  0
    4.3020   -6.8245    3.1335 C   0  0  0  0  0  0  0  0  0  0  0  0
    4.3638   -6.1536    1.9131 C   0  0  0  0  0  0  0  0  0  0  0  0
    1.1930    0.7794    2.0386 H   0  0  0  0  0  0  0  0  0  0  0  0
    0.9511   -0.8929    1.7078 H   0  0  0  0  0  0  0  0  0  0  0  0
    4.7733    2.5912   -0.7891 H   0  0  0  0  0  0  0  0  0  0  0  0
    5.6144    1.2907   -1.6413 H   0  0  0  0  0  0  0  0  0  0  0  0
    7.9636    1.2537   -1.2063 H   0  0  0  0  0  0  0  0  0  0  0  0
    9.8823    1.5358    0.3156 H   0  0  0  0  0  0  0  0  0  0  0  0
    9.5280    2.2777    2.6546 H   0  0  0  0  0  0  0  0  0  0  0  0
    7.2352    2.7720    3.4633 H   0  0  0  0  0  0  0  0  0  0  0  0
    5.2993    2.4907    1.9628 H   0  0  0  0  0  0  0  0  0  0  0  0
    5.0820   -1.1556   -1.0013 H   0  0  0  0  0  0  0  0  0  0  0  0
    4.5637   -3.2628    0.0222 H   0  0  0  0  0  0  0  0  0  0  0  0
    3.9789   -5.4280   -0.6205 H   0  0  0  0  0  0  0  0  0  0  0  0
    2.2679   -5.0541   -0.4815 H   0  0  0  0  0  0  0  0  0  0  0  0
    1.1440   -5.1140    1.7085 H   0  0  0  0  0  0  0  0  0  0  0  0
    1.4890   -6.4081    6.0569 H   0  0  0  0  0  0  0  0  0  0  0  0
    0.1851   -6.5768    7.8599 H   0  0  0  0  0  0  0  0  0  0  0  0
   -2.7882   -6.7092    5.9672 H   0  0  0  0  0  0  0  0  0  0  0  0
   -2.7443   -6.6344    3.4840 H   0  0  0  0  0  0  0  0  0  0  0  0
   -0.6128   -6.4837    2.2873 H   0  0  0  0  0  0  0  0  0  0  0  0
    3.0778   -7.4848    4.7543 H   0  0  0  0  0  0  0  0  0  0  0  0
    5.1901   -7.3065    3.5345 H   0  0  0  0  0  0  0  0  0  0  0  0
    5.3074   -6.1229    1.3722 H   0  0  0  0  0  0  0  0  0  0  0  0
  1  2  1  0  0  0  0
  1 31  1  0  0  0  0
  1 32  1  0  0  0  0
  2  3  2  0  0  0  0
  2 13  1  0  0  0  0
  3  4  1  0  0  0  0
  4  5  1  0  0  0  0
  4 12  1  0  0  0  0
  5  6  1  0  0  0  0
  5 33  1  0  0  0  0
  5 34  1  0  0  0  0
  6  7  2  0  0  0  0
  6 11  1  0  0  0  0
  7  8  1  0  0  0  0
  7 35  1  0  0  0  0
  8  9  2  0  0  0  0
  8 36  1  0  0  0  0
  9 10  1  0  0  0  0
  9 37  1  0  0  0  0
 10 11  2  0  0  0  0
 10 38  1  0  0  0  0
 11 39  1  0  0  0  0
 12 13  2  0  0  0  0
 12 40  1  0  0  0  0
 13 14  1  0  0  0  0
 14 15  2  0  0  0  0
 14 16  1  0  0  0  0
 16 17  1  0  0  0  0
 16 41  1  0  0  0  0
 17 18  1  0  0  0  0
 17 42  1  0  0  0  0
 17 43  1  0  0  0  0
 18 19  2  0  0  0  0
 18 30  1  0  0  0  0
 19 20  1  0  0  0  0
 19 44  1  0  0  0  0
 20 21  1  0  0  0  0
 20 28  2  0  0  0  0
 21 22  2  0  0  0  0
 21 27  1  0  0  0  0
 22 23  1  0  0  0  0
 22 45  1  0  0  0  0
 23 24  1  0  0  0  0
 23 25  2  0  0  0  0
 24 46  1  0  0  0  0
 25 26  1  0  0  0  0
 25 47  1  0  0  0  0
 26 27  2  0  0  0  0
 26 48  1  0  0  0  0
 27 49  1  0  0  0  0
 28 29  1  0  0  0  0
 28 50  1  0  0  0  0
 29 30  2  0  0  0  0
 29 51  1  0  0  0  0
 30 52  1  0  0  0  0
M  END
$$$$
