
 OpenBabel01122422413D

 47 50  0  0  0  0  0  0  0  0999 V2000
    4.7001   -2.4329   -2.2659 O   0  0  0  0  0  0  0  0  0  0  0  0
    4.4658   -1.5194   -1.4764 C   0  0  0  0  0  0  0  0  0  0  0  0
    5.3628   -0.3295   -1.5059 C   0  0  0  0  0  0  0  0  0  0  0  0
    5.1753    0.6888   -0.6593 C   0  0  0  0  0  0  0  0  0  0  0  0
    4.0974    0.6550    0.2914 C   0  0  0  0  0  0  0  0  0  0  0  0
    3.2970   -0.4154    0.3565 C   0  0  0  0  0  0  0  0  0  0  0  0
    3.4512   -1.5002   -0.5006 N   0  0  0  0  0  0  0  0  0  0  0  0
    2.5715   -2.6190   -0.4073 C   0  0  0  0  0  0  0  0  0  0  0  0
    1.9278   -3.1144   -1.5464 C   0  0  0  0  0  0  0  0  0  0  0  0
    1.0309   -4.1848   -1.4525 C   0  0  0  0  0  0  0  0  0  0  0  0
    0.7615   -4.7914   -0.2221 C   0  0  0  0  0  0  0  0  0  0  0  0
   -0.0592   -5.9194   -0.0930 N   0  0  0  0  0  0  0  0  0  0  0  0
   -1.1859   -6.1030   -1.0004 C   0  0  0  0  0  0  0  0  0  0  0  0
   -1.9824   -7.3324   -0.7190 C   0  0  0  0  0  0  0  0  0  0  0  0
   -1.5347   -8.6351   -0.7151 C   0  0  0  0  0  0  0  0  0  0  0  0
   -2.5957   -9.4093   -0.3442 N   0  0  0  0  0  0  0  0  0  0  0  0
   -2.5400  -10.8116    0.0321 C   0  0  0  0  0  0  0  0  0  0  0  0
   -2.8389  -11.7432   -1.1086 C   0  0  0  0  0  0  0  0  0  0  0  0
   -4.1538  -12.1385   -1.3912 C   0  0  0  0  0  0  0  0  0  0  0  0
   -4.4059  -13.1060   -2.3675 C   0  0  0  0  0  0  0  0  0  0  0  0
   -3.3515  -13.6697   -3.0866 C   0  0  0  0  0  0  0  0  0  0  0  0
   -2.0460  -13.2428   -2.8514 C   0  0  0  0  0  0  0  0  0  0  0  0
   -1.8015  -12.2833   -1.8727 C   0  0  0  0  0  0  0  0  0  0  0  0
   -0.5367  -11.9024   -1.6429 F   0  0  0  0  0  0  0  0  0  0  0  0
   -3.7252   -8.6950   -0.1437 N   0  0  0  0  0  0  0  0  0  0  0  0
   -3.3476   -7.4349   -0.3766 C   0  0  0  0  0  0  0  0  0  0  0  0
    1.4656   -4.3153    0.8973 C   0  0  0  0  0  0  0  0  0  0  0  0
    1.2857   -4.9088    2.0878 F   0  0  0  0  0  0  0  0  0  0  0  0
    2.3303   -3.2245    0.8252 C   0  0  0  0  0  0  0  0  0  0  0  0
    6.1668   -0.3509   -2.2293 H   0  0  0  0  0  0  0  0  0  0  0  0
    5.8314    1.5521   -0.6732 H   0  0  0  0  0  0  0  0  0  0  0  0
    3.9438    1.5123    0.9393 H   0  0  0  0  0  0  0  0  0  0  0  0
    2.4627   -0.4449    1.0514 H   0  0  0  0  0  0  0  0  0  0  0  0
    2.0994   -2.6594   -2.5196 H   0  0  0  0  0  0  0  0  0  0  0  0
    0.5696   -4.5391   -2.3689 H   0  0  0  0  0  0  0  0  0  0  0  0
   -0.3064   -6.0869    0.8809 H   0  0  0  0  0  0  0  0  0  0  0  0
   -0.8295   -6.1832   -2.0339 H   0  0  0  0  0  0  0  0  0  0  0  0
   -1.8433   -5.2256   -0.9463 H   0  0  0  0  0  0  0  0  0  0  0  0
   -0.5550   -9.0562   -0.9003 H   0  0  0  0  0  0  0  0  0  0  0  0
   -3.2439  -10.9673    0.8566 H   0  0  0  0  0  0  0  0  0  0  0  0
   -1.5404  -11.0056    0.4408 H   0  0  0  0  0  0  0  0  0  0  0  0
   -4.9862  -11.7087   -0.8359 H   0  0  0  0  0  0  0  0  0  0  0  0
   -5.4268  -13.4298   -2.5572 H   0  0  0  0  0  0  0  0  0  0  0  0
   -3.5481  -14.4398   -3.8283 H   0  0  0  0  0  0  0  0  0  0  0  0
   -1.2164  -13.6638   -3.4107 H   0  0  0  0  0  0  0  0  0  0  0  0
   -4.0787   -6.6443   -0.2685 H   0  0  0  0  0  0  0  0  0  0  0  0
    2.8525   -2.9108    1.7233 H   0  0  0  0  0  0  0  0  0  0  0  0
  1  2  2  0  0  0  0
  2  3  1  0  0  0  0
  2  7  1  0  0  0  0
  3  4  2  0  0  0  0
  3 30  1  0  0  0  0
  4  5  1  0  0  0  0
  4 31  1  0  0  0  0
  5  6  2  0  0  0  0
  5 32  1  0  0  0  0
  6  7  1  0  0  0  0
  6 33  1  0  0  0  0
  7  8  1  0  0  0  0
  8  9  2  0  0  0  0
  8 29  1  0  0  0  0
  9 10  1  0  0  0  0
  9 34  1  0  0  0  0
 10 11  2  0  0  0  0
 10 35  1  0  0  0  0
 11 12  1  0  0  0  0
 11 27  1  0  0  0  0
 12 13  1  0  0  0  0
 12 36  1  0  0  0  0
 13 14  1  0  0  0  0
 13 37  1  0  0  0  0
 13 38  1  0  0  0  0
 14 15  2  0  0  0  0
 14 26  1  0  0  0  0
 15 16  1  0  0  0  0
 15 39  1  0  0  0  0
 16 17  1  0  0  0  0
 16 25  1  0  0  0  0
 17 18  1  0  0  0  0
 17 40  1  0  0  0  0
 17 41  1  0  0  0  0
 18 19  2  0  0  0  0
 18 23  1  0  0  0  0
 19 20  1  0  0  0  0
 19 42  1  0  0  0  0
 20 21  2  0  0  0  0
 20 43  1  0  0  0  0
 21 22  1  0  0  0  0
 21 44  1  0  0  0  0
 22 23  2  0  0  0  0
 22 45  1  0  0  0  0
 23 24  1  0  0  0  0
 25 26  2  0  0  0  0
 26 46  1  0  0  0  0
 27 28  1  0  0  0  0
 27 29  2  0  0  0  0
 29 47  1  0  0  0  0
M  END
$$$$
