
 OpenBabel01122422353D

 44 47  0  0  0  0  0  0  0  0999 V2000
    4.3624    0.1356    2.5266 O   0  0  0  0  0  0  0  0  0  0  0  0
    3.9807   -0.0649    1.3849 C   0  0  0  0  0  0  0  0  0  0  0  0
    2.9253   -0.8852    0.9905 N   0  0  0  0  0  0  0  0  0  0  0  0
    2.2108   -1.7730    1.7958 C   0  0  0  0  0  0  0  0  0  0  0  0
    1.1000   -2.3859    1.3253 C   0  0  0  0  0  0  0  0  0  0  0  0
    0.3481   -3.2462    2.1131 N   0  0  0  0  0  0  0  0  0  0  0  0
   -0.9551   -3.7176    1.6343 C   0  0  0  0  0  0  0  0  0  0  0  0
   -0.9496   -5.0291    0.8816 C   0  0  0  0  0  0  0  0  0  0  0  0
   -1.3632   -5.0710   -0.4579 C   0  0  0  0  0  0  0  0  0  0  0  0
   -1.5515   -6.2946   -1.0956 C   0  0  0  0  0  0  0  0  0  0  0  0
   -2.0016   -6.3131   -2.3575 F   0  0  0  0  0  0  0  0  0  0  0  0
   -1.3176   -7.4933   -0.4355 C   0  0  0  0  0  0  0  0  0  0  0  0
   -0.8613   -7.4678    0.8800 C   0  0  0  0  0  0  0  0  0  0  0  0
   -0.6747   -6.2448    1.5337 C   0  0  0  0  0  0  0  0  0  0  0  0
    0.6975   -3.5555    3.4252 C   0  0  0  0  0  0  0  0  0  0  0  0
    0.0492   -4.2720    4.1826 O   0  0  0  0  0  0  0  0  0  0  0  0
    1.9544   -2.9380    3.9140 C   0  0  0  0  0  0  0  0  0  0  0  0
    2.6465   -2.0997    3.1322 C   0  0  0  0  0  0  0  0  0  0  0  0
    4.7436    0.5711    0.2831 C   0  0  0  0  0  0  0  0  0  0  0  0
    4.0939    1.3088   -0.7156 C   0  0  0  0  0  0  0  0  0  0  0  0
    4.8215    1.8013   -1.8073 C   0  0  0  0  0  0  0  0  0  0  0  0
    6.1637    1.4513   -1.9664 C   0  0  0  0  0  0  0  0  0  0  0  0
    6.7869    0.6675   -0.9919 C   0  0  0  0  0  0  0  0  0  0  0  0
    6.1188    0.3383    0.1808 C   0  0  0  0  0  0  0  0  0  0  0  0
    6.9347   -0.2745    1.2321 C   0  0  0  0  0  0  0  0  0  0  0  0
    8.0479   -0.8965    0.9988 N   0  0  0  0  0  0  0  0  0  0  0  0
    8.4939   -0.8925   -0.2902 N   0  0  0  0  0  0  0  0  0  0  0  0
    8.0725   -0.0068   -1.2598 C   0  0  0  0  0  0  0  0  0  0  0  0
    8.6600    0.1454   -2.3233 O   0  0  0  0  0  0  0  0  0  0  0  0
    2.6474   -0.8492    0.0167 H   0  0  0  0  0  0  0  0  0  0  0  0
    0.7220   -2.1946    0.3264 H   0  0  0  0  0  0  0  0  0  0  0  0
   -1.3982   -2.9269    1.0131 H   0  0  0  0  0  0  0  0  0  0  0  0
   -1.6401   -3.8271    2.4856 H   0  0  0  0  0  0  0  0  0  0  0  0
   -1.5913   -4.1613   -1.0055 H   0  0  0  0  0  0  0  0  0  0  0  0
   -1.5063   -8.4341   -0.9418 H   0  0  0  0  0  0  0  0  0  0  0  0
   -0.6781   -8.4007    1.4110 H   0  0  0  0  0  0  0  0  0  0  0  0
   -0.3590   -6.2508    2.5767 H   0  0  0  0  0  0  0  0  0  0  0  0
    2.2688   -3.1981    4.9158 H   0  0  0  0  0  0  0  0  0  0  0  0
    3.5724   -1.6940    3.5319 H   0  0  0  0  0  0  0  0  0  0  0  0
    3.0279    1.5206   -0.6505 H   0  0  0  0  0  0  0  0  0  0  0  0
    4.3320    2.4104   -2.5660 H   0  0  0  0  0  0  0  0  0  0  0  0
    6.7111    1.7554   -2.8579 H   0  0  0  0  0  0  0  0  0  0  0  0
    6.6200   -0.1784    2.2830 H   0  0  0  0  0  0  0  0  0  0  0  0
    9.3328   -1.4339   -0.4737 H   0  0  0  0  0  0  0  0  0  0  0  0
  1  2  2  0  0  0  0
  2  3  1  0  0  0  0
  2 19  1  0  0  0  0
  3  4  1  0  0  0  0
  3 30  1  0  0  0  0
  4  5  2  0  0  0  0
  4 18  1  0  0  0  0
  5  6  1  0  0  0  0
  5 31  1  0  0  0  0
  6  7  1  0  0  0  0
  6 15  1  0  0  0  0
  7  8  1  0  0  0  0
  7 32  1  0  0  0  0
  7 33  1  0  0  0  0
  8  9  2  0  0  0  0
  8 14  1  0  0  0  0
  9 10  1  0  0  0  0
  9 34  1  0  0  0  0
 10 11  1  0  0  0  0
 10 12  2  0  0  0  0
 12 13  1  0  0  0  0
 12 35  1  0  0  0  0
 13 14  2  0  0  0  0
 13 36  1  0  0  0  0
 14 37  1  0  0  0  0
 15 16  2  0  0  0  0
 15 17  1  0  0  0  0
 17 18  2  0  0  0  0
 17 38  1  0  0  0  0
 18 39  1  0  0  0  0
 19 20  2  0  0  0  0
 19 24  1  0  0  0  0
 20 21  1  0  0  0  0
 20 40  1  0  0  0  0
 21 22  2  0  0  0  0
 21 41  1  0  0  0  0
 22 23  1  0  0  0  0
 22 42  1  0  0  0  0
 23 24  2  0  0  0  0
 23 28  1  0  0  0  0
 24 25  1  0  0  0  0
 25 26  2  0  0  0  0
 25 43  1  0  0  0  0
 26 27  1  0  0  0  0
 27 28  1  0  0  0  0
 27 44  1  0  0  0  0
 28 29  2  0  0  0  0
M  END
$$$$
