
 OpenBabel01122422413D

 42 45  0  0  0  0  0  0  0  0999 V2000
    2.1148   -1.6880    1.2469 O   0  0  0  0  0  0  0  0  0  0  0  0
    2.7745   -0.8394    0.6642 C   0  0  0  0  0  0  0  0  0  0  0  0
    2.9805   -0.8173   -0.7046 N   0  0  0  0  0  0  0  0  0  0  0  0
    2.2921   -1.7304   -1.5974 C   0  0  0  0  0  0  0  0  0  0  0  0
    3.2436   -2.6078   -2.3499 C   0  0  0  0  0  0  0  0  0  0  0  0
    3.1897   -2.6867   -3.7442 C   0  0  0  0  0  0  0  0  0  0  0  0
    3.9860   -3.4832   -4.4873 N   0  0  0  0  0  0  0  0  0  0  0  0
    4.8854   -4.2381   -3.8064 C   0  0  0  0  0  0  0  0  0  0  0  0
    5.0586   -4.2521   -2.4187 C   0  0  0  0  0  0  0  0  0  0  0  0
    6.0682   -5.1014   -1.7581 C   0  0  0  0  0  0  0  0  0  0  0  0
    5.8650   -5.6652   -0.4899 C   0  0  0  0  0  0  0  0  0  0  0  0
    6.8462   -6.4617    0.1061 C   0  0  0  0  0  0  0  0  0  0  0  0
    8.0183   -6.6896   -0.5903 C   0  0  0  0  0  0  0  0  0  0  0  0
    8.2671   -6.1781   -1.8111 N   0  0  0  0  0  0  0  0  0  0  0  0
    7.2968   -5.4009   -2.3553 C   0  0  0  0  0  0  0  0  0  0  0  0
    4.2009   -3.4034   -1.7053 C   0  0  0  0  0  0  0  0  0  0  0  0
    3.4498    0.2681    1.4068 C   0  0  0  0  0  0  0  0  0  0  0  0
    4.2954    1.0656    0.6951 N   0  0  0  0  0  0  0  0  0  0  0  0
    4.7997    2.1375    1.3291 C   0  0  0  0  0  0  0  0  0  0  0  0
    5.8055    2.8763    0.7313 C   0  0  0  0  0  0  0  0  0  0  0  0
    6.3401    3.9913    1.3697 C   0  0  0  0  0  0  0  0  0  0  0  0
    7.4629    4.5441    0.8951 F   0  0  0  0  0  0  0  0  0  0  0  0
    5.7741    4.4967    2.5257 C   0  0  0  0  0  0  0  0  0  0  0  0
    4.8195    3.7298    3.1670 C   0  0  0  0  0  0  0  0  0  0  0  0
    4.3363    4.1516    4.3452 F   0  0  0  0  0  0  0  0  0  0  0  0
    4.3901    2.5094    2.6272 C   0  0  0  0  0  0  0  0  0  0  0  0
    3.5900    1.6156    3.3497 C   0  0  0  0  0  0  0  0  0  0  0  0
    3.1320    0.4589    2.7397 C   0  0  0  0  0  0  0  0  0  0  0  0
    3.5776   -0.0815   -1.0835 H   0  0  0  0  0  0  0  0  0  0  0  0
    1.7107   -1.1011   -2.2776 H   0  0  0  0  0  0  0  0  0  0  0  0
    1.5856   -2.3586   -1.0466 H   0  0  0  0  0  0  0  0  0  0  0  0
    2.4682   -2.1058   -4.3145 H   0  0  0  0  0  0  0  0  0  0  0  0
    5.4825   -4.8715   -4.4583 H   0  0  0  0  0  0  0  0  0  0  0  0
    4.9347   -5.5031    0.0509 H   0  0  0  0  0  0  0  0  0  0  0  0
    6.6909   -6.8956    1.0866 H   0  0  0  0  0  0  0  0  0  0  0  0
    8.8105   -7.3049   -0.1739 H   0  0  0  0  0  0  0  0  0  0  0  0
    7.5643   -5.0029   -3.3314 H   0  0  0  0  0  0  0  0  0  0  0  0
    4.2646   -3.3446   -0.6180 H   0  0  0  0  0  0  0  0  0  0  0  0
    6.2251    2.5534   -0.2168 H   0  0  0  0  0  0  0  0  0  0  0  0
    6.1135    5.4331    2.9510 H   0  0  0  0  0  0  0  0  0  0  0  0
    3.3488    1.8076    4.3928 H   0  0  0  0  0  0  0  0  0  0  0  0
    2.5124   -0.2523    3.2741 H   0  0  0  0  0  0  0  0  0  0  0  0
  1  2  2  0  0  0  0
  2  3  1  0  0  0  0
  2 17  1  0  0  0  0
  3  4  1  0  0  0  0
  3 29  1  0  0  0  0
  4  5  1  0  0  0  0
  4 30  1  0  0  0  0
  4 31  1  0  0  0  0
  5  6  2  0  0  0  0
  5 16  1  0  0  0  0
  6  7  1  0  0  0  0
  6 32  1  0  0  0  0
  7  8  2  0  0  0  0
  8  9  1  0  0  0  0
  8 33  1  0  0  0  0
  9 10  1  0  0  0  0
  9 16  2  0  0  0  0
 10 11  2  0  0  0  0
 10 15  1  0  0  0  0
 11 12  1  0  0  0  0
 11 34  1  0  0  0  0
 12 13  2  0  0  0  0
 12 35  1  0  0  0  0
 13 14  1  0  0  0  0
 13 36  1  0  0  0  0
 14 15  2  0  0  0  0
 15 37  1  0  0  0  0
 16 38  1  0  0  0  0
 17 18  2  0  0  0  0
 17 28  1  0  0  0  0
 18 19  1  0  0  0  0
 19 20  2  0  0  0  0
 19 26  1  0  0  0  0
 20 21  1  0  0  0  0
 20 39  1  0  0  0  0
 21 22  1  0  0  0  0
 21 23  2  0  0  0  0
 23 24  1  0  0  0  0
 23 40  1  0  0  0  0
 24 25  1  0  0  0  0
 24 26  2  0  0  0  0
 26 27  1  0  0  0  0
 27 28  2  0  0  0  0
 27 41  1  0  0  0  0
 28 42  1  0  0  0  0
M  END
$$$$
