
 OpenBabel01122422413D

 53 56  0  0  1  0  0  0  0  0999 V2000
    6.1209   -4.7705   -4.5703 C   0  0  0  0  0  0  0  0  0  0  0  0
    6.4481   -4.0003   -3.4141 O   0  0  0  0  0  0  0  0  0  0  0  0
    7.4804   -3.1374   -3.5912 C   0  0  0  0  0  0  0  0  0  0  0  0
    8.0961   -2.9773   -4.6334 O   0  0  0  0  0  0  0  0  0  0  0  0
    7.7243   -2.3894   -2.3105 C   0  0  0  0  0  0  0  0  0  0  0  0
    7.4323   -3.1109   -1.1898 N   0  0  0  0  0  0  0  0  0  0  0  0
    7.6173   -2.5097   -0.0112 C   0  0  0  0  0  0  0  0  0  0  0  0
    8.0762   -1.2134    0.1086 C   0  0  0  0  0  0  0  0  0  0  0  0
    8.3968   -0.4474   -1.0393 C   0  0  0  0  0  0  0  0  0  0  0  0
    8.8844    0.8962   -0.9928 C   0  0  0  0  0  0  0  0  0  0  0  0
    9.1564    1.6475    0.5921 S   0  0  0  0  0  0  0  0  0  0  0  0
    7.8471    1.9455    1.1323 O   0  0  0  0  0  0  0  0  0  0  0  0
   10.0847    0.7919    1.2929 O   0  0  0  0  0  0  0  0  0  0  0  0
    9.8565    3.1562    0.3244 N   0  0  0  0  0  0  0  0  0  0  0  0
   11.3241    3.2953    0.2780 C   0  0  3  0  0  0  0  0  0  0  0  0
   11.6637    4.7577   -0.0216 C   0  0  0  0  0  0  0  0  0  0  0  0
   12.0386    2.8708    1.5439 C   0  0  0  0  0  0  0  0  0  0  0  0
   13.2915    2.2552    1.4514 C   0  0  0  0  0  0  0  0  0  0  0  0
   13.9042    1.7215    2.5878 C   0  0  0  0  0  0  0  0  0  0  0  0
   13.2919    1.7878    3.8516 C   0  0  0  0  0  0  0  0  0  0  0  0
   13.9095    1.1669    5.0390 C   0  0  0  0  0  0  0  0  0  0  0  0
   15.2983    1.1320    5.2239 C   0  0  0  0  0  0  0  0  0  0  0  0
   15.8500    0.5359    6.3562 C   0  0  0  0  0  0  0  0  0  0  0  0
   14.9939   -0.0103    7.2946 C   0  0  0  0  0  0  0  0  0  0  0  0
   13.6529   -0.0072    7.1704 N   0  0  0  0  0  0  0  0  0  0  0  0
   13.1500    0.5699    6.0502 C   0  0  0  0  0  0  0  0  0  0  0  0
   12.0590    2.4543    3.9369 C   0  0  0  0  0  0  0  0  0  0  0  0
   11.4496    3.0046    2.8079 C   0  0  0  0  0  0  0  0  0  0  0  0
    9.1830    1.6187   -2.1507 C   0  0  0  0  0  0  0  0  0  0  0  0
    9.0034    1.0203   -3.3871 C   0  0  0  0  0  0  0  0  0  0  0  0
    8.5248   -0.2887   -3.4623 C   0  0  0  0  0  0  0  0  0  0  0  0
    8.2162   -1.0557   -2.3053 C   0  0  0  0  0  0  0  0  0  0  0  0
    5.3214   -5.4652   -4.2990 H   0  0  0  0  0  0  0  0  0  0  0  0
    6.9856   -5.3515   -4.9060 H   0  0  0  0  0  0  0  0  0  0  0  0
    5.7575   -4.1167   -5.3687 H   0  0  0  0  0  0  0  0  0  0  0  0
    7.3832   -3.1038    0.8679 H   0  0  0  0  0  0  0  0  0  0  0  0
    8.1776   -0.8250    1.1186 H   0  0  0  0  0  0  0  0  0  0  0  0
    9.3488    3.8740    0.8415 H   0  0  0  0  0  0  0  0  0  0  0  0
   11.6793    2.6846   -0.5618 H   0  0  0  0  0  0  0  0  0  0  0  0
   11.2976    5.4256    0.7677 H   0  0  0  0  0  0  0  0  0  0  0  0
   11.2106    5.0821   -0.9645 H   0  0  0  0  0  0  0  0  0  0  0  0
   12.7473    4.9043   -0.1005 H   0  0  0  0  0  0  0  0  0  0  0  0
   13.7823    2.1411    0.4870 H   0  0  0  0  0  0  0  0  0  0  0  0
   14.8539    1.2071    2.4586 H   0  0  0  0  0  0  0  0  0  0  0  0
   15.9670    1.5783    4.4922 H   0  0  0  0  0  0  0  0  0  0  0  0
   16.9233    0.5047    6.5015 H   0  0  0  0  0  0  0  0  0  0  0  0
   15.3761   -0.4787    8.1964 H   0  0  0  0  0  0  0  0  0  0  0  0
   12.0650    0.5226    5.9872 H   0  0  0  0  0  0  0  0  0  0  0  0
   11.5331    2.5356    4.8859 H   0  0  0  0  0  0  0  0  0  0  0  0
   10.4721    3.4656    2.9239 H   0  0  0  0  0  0  0  0  0  0  0  0
    9.5521    2.6390   -2.1088 H   0  0  0  0  0  0  0  0  0  0  0  0
    9.2352    1.5643   -4.3002 H   0  0  0  0  0  0  0  0  0  0  0  0
    8.3967   -0.7064   -4.4598 H   0  0  0  0  0  0  0  0  0  0  0  0
  1  2  1  0  0  0  0
  1 33  1  0  0  0  0
  1 34  1  0  0  0  0
  1 35  1  0  0  0  0
  2  3  1  0  0  0  0
  3  4  2  0  0  0  0
  3  5  1  0  0  0  0
  5  6  2  0  0  0  0
  5 32  1  0  0  0  0
  6  7  1  0  0  0  0
  7  8  2  0  0  0  0
  7 36  1  0  0  0  0
  8  9  1  0  0  0  0
  8 37  1  0  0  0  0
  9 10  2  0  0  0  0
  9 32  1  0  0  0  0
 10 11  1  0  0  0  0
 10 29  1  0  0  0  0
 11 12  2  0  0  0  0
 11 13  2  0  0  0  0
 11 14  1  0  0  0  0
 14 15  1  0  0  0  0
 14 38  1  0  0  0  0
 15 16  1  0  0  0  0
 15 17  1  0  0  0  0
 15 39  1  0  0  0  0
 16 40  1  0  0  0  0
 16 41  1  0  0  0  0
 16 42  1  0  0  0  0
 17 18  2  0  0  0  0
 17 28  1  0  0  0  0
 18 19  1  0  0  0  0
 18 43  1  0  0  0  0
 19 20  2  0  0  0  0
 19 44  1  0  0  0  0
 20 21  1  0  0  0  0
 20 27  1  0  0  0  0
 21 22  2  0  0  0  0
 21 26  1  0  0  0  0
 22 23  1  0  0  0  0
 22 45  1  0  0  0  0
 23 24  2  0  0  0  0
 23 46  1  0  0  0  0
 24 25  1  0  0  0  0
 24 47  1  0  0  0  0
 25 26  2  0  0  0  0
 26 48  1  0  0  0  0
 27 28  2  0  0  0  0
 27 49  1  0  0  0  0
 28 50  1  0  0  0  0
 29 30  2  0  0  0  0
 29 51  1  0  0  0  0
 30 31  1  0  0  0  0
 30 52  1  0  0  0  0
 31 32  2  0  0  0  0
 31 53  1  0  0  0  0
M  END
$$$$
