
 OpenBabel01122422413D

 43 46  0  0  0  0  0  0  0  0999 V2000
    2.1469    2.1761   -0.7959 O   0  0  0  0  0  0  0  0  0  0  0  0
    2.9658    1.3136   -0.4970 C   0  0  0  0  0  0  0  0  0  0  0  0
    3.1920    0.8926    0.7868 N   0  0  0  0  0  0  0  0  0  0  0  0
    2.3951    1.3696    1.8924 C   0  0  0  0  0  0  0  0  0  0  0  0
    3.2298    2.1160    2.8948 C   0  0  0  0  0  0  0  0  0  0  0  0
    3.5276    3.4685    2.6951 C   0  0  0  0  0  0  0  0  0  0  0  0
    4.2684    4.1700    3.6419 C   0  0  0  0  0  0  0  0  0  0  0  0
    4.7033    3.5288    4.8048 C   0  0  0  0  0  0  0  0  0  0  0  0
    4.4078    2.1755    5.0501 C   0  0  0  0  0  0  0  0  0  0  0  0
    4.7637    1.5138    6.3231 C   0  0  0  0  0  0  0  0  0  0  0  0
    4.7587    2.1991    7.5409 C   0  0  0  0  0  0  0  0  0  0  0  0
    5.0301    1.5085    8.7195 C   0  0  0  0  0  0  0  0  0  0  0  0
    5.3030    0.1502    8.6604 C   0  0  0  0  0  0  0  0  0  0  0  0
    5.2937   -0.4616    7.4194 C   0  0  0  0  0  0  0  0  0  0  0  0
    5.0280    0.1829    6.2601 N   0  0  0  0  0  0  0  0  0  0  0  0
    3.6972    1.4774    4.0556 C   0  0  0  0  0  0  0  0  0  0  0  0
    3.7679    0.5878   -1.5323 C   0  0  0  0  0  0  0  0  0  0  0  0
    3.5228    0.9021   -2.8116 C   0  0  0  0  0  0  0  0  0  0  0  0
    4.1855    0.1403   -3.8735 C   0  0  0  0  0  0  0  0  0  0  0  0
    4.0542    0.4407   -5.0521 O   0  0  0  0  0  0  0  0  0  0  0  0
    4.9838   -1.0150   -3.4457 C   0  0  0  0  0  0  0  0  0  0  0  0
    5.4863   -1.9149   -4.3866 C   0  0  0  0  0  0  0  0  0  0  0  0
    6.2344   -2.9964   -3.9427 C   0  0  0  0  0  0  0  0  0  0  0  0
    6.6943   -3.8882   -4.8288 F   0  0  0  0  0  0  0  0  0  0  0  0
    6.5090   -3.1739   -2.5881 C   0  0  0  0  0  0  0  0  0  0  0  0
    5.9994   -2.2714   -1.6508 C   0  0  0  0  0  0  0  0  0  0  0  0
    5.2120   -1.2022   -2.0813 C   0  0  0  0  0  0  0  0  0  0  0  0
    4.6641   -0.3888   -1.1182 O   0  0  0  0  0  0  0  0  0  0  0  0
    3.8996    0.1936    0.9685 H   0  0  0  0  0  0  0  0  0  0  0  0
    1.9303    0.4928    2.3580 H   0  0  0  0  0  0  0  0  0  0  0  0
    1.5757    2.0075    1.5449 H   0  0  0  0  0  0  0  0  0  0  0  0
    3.1712    3.9814    1.8032 H   0  0  0  0  0  0  0  0  0  0  0  0
    4.4943    5.2216    3.4843 H   0  0  0  0  0  0  0  0  0  0  0  0
    5.2782    4.1077    5.5242 H   0  0  0  0  0  0  0  0  0  0  0  0
    4.5115    3.2541    7.5886 H   0  0  0  0  0  0  0  0  0  0  0  0
    5.0123    2.0283    9.6729 H   0  0  0  0  0  0  0  0  0  0  0  0
    5.5088   -0.4188    9.5599 H   0  0  0  0  0  0  0  0  0  0  0  0
    5.4989   -1.5239    7.3211 H   0  0  0  0  0  0  0  0  0  0  0  0
    3.4700    0.4233    4.2134 H   0  0  0  0  0  0  0  0  0  0  0  0
    2.8235    1.6720   -3.1208 H   0  0  0  0  0  0  0  0  0  0  0  0
    5.2866   -1.7908   -5.4471 H   0  0  0  0  0  0  0  0  0  0  0  0
    7.1087   -4.0228   -2.2726 H   0  0  0  0  0  0  0  0  0  0  0  0
    6.2058   -2.4144   -0.5933 H   0  0  0  0  0  0  0  0  0  0  0  0
  1  2  2  0  0  0  0
  2  3  1  0  0  0  0
  2 17  1  0  0  0  0
  3  4  1  0  0  0  0
  3 29  1  0  0  0  0
  4  5  1  0  0  0  0
  4 30  1  0  0  0  0
  4 31  1  0  0  0  0
  5  6  2  0  0  0  0
  5 16  1  0  0  0  0
  6  7  1  0  0  0  0
  6 32  1  0  0  0  0
  7  8  2  0  0  0  0
  7 33  1  0  0  0  0
  8  9  1  0  0  0  0
  8 34  1  0  0  0  0
  9 10  1  0  0  0  0
  9 16  2  0  0  0  0
 10 11  2  0  0  0  0
 10 15  1  0  0  0  0
 11 12  1  0  0  0  0
 11 35  1  0  0  0  0
 12 13  2  0  0  0  0
 12 36  1  0  0  0  0
 13 14  1  0  0  0  0
 13 37  1  0  0  0  0
 14 15  2  0  0  0  0
 14 38  1  0  0  0  0
 16 39  1  0  0  0  0
 17 18  2  0  0  0  0
 17 28  1  0  0  0  0
 18 19  1  0  0  0  0
 18 40  1  0  0  0  0
 19 20  2  0  0  0  0
 19 21  1  0  0  0  0
 21 22  2  0  0  0  0
 21 27  1  0  0  0  0
 22 23  1  0  0  0  0
 22 41  1  0  0  0  0
 23 24  1  0  0  0  0
 23 25  2  0  0  0  0
 25 26  1  0  0  0  0
 25 42  1  0  0  0  0
 26 27  2  0  0  0  0
 26 43  1  0  0  0  0
 27 28  1  0  0  0  0
M  END
$$$$
