
 OpenBabel01122422413D

 50 53  0  0  0  0  0  0  0  0999 V2000
    3.3779    7.9860   -0.8492 N   0  0  0  0  0  0  0  0  0  0  0  0
    4.2328    6.9593   -0.2708 C   0  0  0  0  0  0  0  0  0  0  0  0
    4.0510    5.6269   -0.9654 C   0  0  0  0  0  0  0  0  0  0  0  0
    4.8624    5.3586   -2.0838 C   0  0  0  0  0  0  0  0  0  0  0  0
    4.7766    4.1438   -2.7542 C   0  0  0  0  0  0  0  0  0  0  0  0
    3.8765    3.1762   -2.3169 C   0  0  0  0  0  0  0  0  0  0  0  0
    3.0414    3.4135   -1.2147 C   0  0  0  0  0  0  0  0  0  0  0  0
    2.1446    2.4204   -0.7860 C   0  0  0  0  0  0  0  0  0  0  0  0
    1.3022    2.6287    0.3079 C   0  0  0  0  0  0  0  0  0  0  0  0
    1.3365    3.8462    0.9831 C   0  0  0  0  0  0  0  0  0  0  0  0
    0.4582    4.1252    2.1543 C   0  0  0  0  0  0  0  0  0  0  0  0
    0.1174    5.2757    2.4122 O   0  0  0  0  0  0  0  0  0  0  0  0
    0.1038    3.0397    2.9308 N   0  0  0  0  0  0  0  0  0  0  0  0
   -0.6804    3.2259    4.1280 C   0  0  0  0  0  0  0  0  0  0  0  0
   -0.9079    1.9286    4.8614 C   0  0  0  0  0  0  0  0  0  0  0  0
   -0.0169    1.5040    5.8577 C   0  0  0  0  0  0  0  0  0  0  0  0
   -0.2559    0.3239    6.5720 C   0  0  0  0  0  0  0  0  0  0  0  0
   -1.3864   -0.4533    6.2972 C   0  0  0  0  0  0  0  0  0  0  0  0
   -1.6532   -1.6832    7.0621 C   0  0  0  0  0  0  0  0  0  0  0  0
   -2.3802   -1.6013    8.1923 C   0  0  0  0  0  0  0  0  0  0  0  0
   -2.6572   -2.7240    8.9372 N   0  0  0  0  0  0  0  0  0  0  0  0
   -2.2348   -3.9914    8.6109 C   0  0  0  0  0  0  0  0  0  0  0  0
   -2.4909   -4.9768    9.2895 O   0  0  0  0  0  0  0  0  0  0  0  0
   -1.4327   -4.0946    7.3649 C   0  0  0  0  0  0  0  0  0  0  0  0
   -1.1696   -2.9930    6.6486 C   0  0  0  0  0  0  0  0  0  0  0  0
   -2.2573   -0.0529    5.2777 C   0  0  0  0  0  0  0  0  0  0  0  0
   -2.0160    1.1247    4.5610 C   0  0  0  0  0  0  0  0  0  0  0  0
    2.2107    4.8527    0.5497 C   0  0  0  0  0  0  0  0  0  0  0  0
    3.1019    4.6566   -0.5328 C   0  0  0  0  0  0  0  0  0  0  0  0
    3.4404    8.8286   -0.2813 H   0  0  0  0  0  0  0  0  0  0  0  0
    2.4071    7.6790   -0.7955 H   0  0  0  0  0  0  0  0  0  0  0  0
    4.0493    6.8672    0.8043 H   0  0  0  0  0  0  0  0  0  0  0  0
    5.2796    7.2757   -0.3546 H   0  0  0  0  0  0  0  0  0  0  0  0
    5.5698    6.1088   -2.4343 H   0  0  0  0  0  0  0  0  0  0  0  0
    5.4113    3.9511   -3.6151 H   0  0  0  0  0  0  0  0  0  0  0  0
    3.8298    2.2306   -2.8527 H   0  0  0  0  0  0  0  0  0  0  0  0
    2.0945    1.4660   -1.3085 H   0  0  0  0  0  0  0  0  0  0  0  0
    0.6097    1.8435    0.5955 H   0  0  0  0  0  0  0  0  0  0  0  0
    0.5607    2.1494    2.7935 H   0  0  0  0  0  0  0  0  0  0  0  0
   -1.6381    3.6804    3.8466 H   0  0  0  0  0  0  0  0  0  0  0  0
   -0.1708    3.9486    4.7772 H   0  0  0  0  0  0  0  0  0  0  0  0
    0.8615    2.1002    6.0983 H   0  0  0  0  0  0  0  0  0  0  0  0
    0.4407    0.0222    7.3518 H   0  0  0  0  0  0  0  0  0  0  0  0
   -2.7818   -0.6663    8.5724 H   0  0  0  0  0  0  0  0  0  0  0  0
   -3.2056   -2.6496    9.7857 H   0  0  0  0  0  0  0  0  0  0  0  0
   -1.0888   -5.0807    7.0841 H   0  0  0  0  0  0  0  0  0  0  0  0
   -0.5858   -3.0545    5.7351 H   0  0  0  0  0  0  0  0  0  0  0  0
   -3.1366   -0.6492    5.0420 H   0  0  0  0  0  0  0  0  0  0  0  0
   -2.7107    1.4210    3.7773 H   0  0  0  0  0  0  0  0  0  0  0  0
    2.1888    5.8037    1.0786 H   0  0  0  0  0  0  0  0  0  0  0  0
  1  2  1  0  0  0  0
  1 30  1  0  0  0  0
  1 31  1  0  0  0  0
  2  3  1  0  0  0  0
  2 32  1  0  0  0  0
  2 33  1  0  0  0  0
  3  4  2  0  0  0  0
  3 29  1  0  0  0  0
  4  5  1  0  0  0  0
  4 34  1  0  0  0  0
  5  6  2  0  0  0  0
  5 35  1  0  0  0  0
  6  7  1  0  0  0  0
  6 36  1  0  0  0  0
  7  8  2  0  0  0  0
  7 29  1  0  0  0  0
  8  9  1  0  0  0  0
  8 37  1  0  0  0  0
  9 10  2  0  0  0  0
  9 38  1  0  0  0  0
 10 11  1  0  0  0  0
 10 28  1  0  0  0  0
 11 12  2  0  0  0  0
 11 13  1  0  0  0  0
 13 14  1  0  0  0  0
 13 39  1  0  0  0  0
 14 15  1  0  0  0  0
 14 40  1  0  0  0  0
 14 41  1  0  0  0  0
 15 16  2  0  0  0  0
 15 27  1  0  0  0  0
 16 17  1  0  0  0  0
 16 42  1  0  0  0  0
 17 18  2  0  0  0  0
 17 43  1  0  0  0  0
 18 19  1  0  0  0  0
 18 26  1  0  0  0  0
 19 20  2  0  0  0  0
 19 25  1  0  0  0  0
 20 21  1  0  0  0  0
 20 44  1  0  0  0  0
 21 22  1  0  0  0  0
 21 45  1  0  0  0  0
 22 23  2  0  0  0  0
 22 24  1  0  0  0  0
 24 25  2  0  0  0  0
 24 46  1  0  0  0  0
 25 47  1  0  0  0  0
 26 27  2  0  0  0  0
 26 48  1  0  0  0  0
 27 49  1  0  0  0  0
 28 29  2  0  0  0  0
 28 50  1  0  0  0  0
M  END
$$$$
