
 OpenBabel01122422413D

 50 53  0  0  0  0  0  0  0  0999 V2000
    1.2718   -0.7969    5.5104 C   0  0  0  0  0  0  0  0  0  0  0  0
    1.3668   -1.4440    4.3412 C   0  0  0  0  0  0  0  0  0  0  0  0
    0.4776   -1.2854    3.2359 C   0  0  0  0  0  0  0  0  0  0  0  0
    0.5762   -1.9028    1.9949 C   0  0  0  0  0  0  0  0  0  0  0  0
    1.5847   -2.8546    1.4431 C   0  0  0  0  0  0  0  0  0  0  0  0
    1.5976   -4.0705    2.2307 N   0  0  0  0  0  0  0  0  0  0  0  0
    0.7648   -5.1256    1.9387 C   0  0  0  0  0  0  0  0  0  0  0  0
    0.0169   -5.1420    0.9614 O   0  0  0  0  0  0  0  0  0  0  0  0
    0.8344   -6.3073    2.8466 C   0  0  0  0  0  0  0  0  0  0  0  0
    1.1612   -6.1911    4.2051 C   0  0  0  0  0  0  0  0  0  0  0  0
    1.1894   -7.3280    5.0263 C   0  0  0  0  0  0  0  0  0  0  0  0
    0.9213   -8.5902    4.4838 C   0  0  0  0  0  0  0  0  0  0  0  0
    1.1049   -9.7525    5.2901 N   0  0  0  0  0  0  0  0  0  0  0  0
    0.8628   -9.6800    6.6253 N   0  0  0  0  0  0  0  0  0  0  0  0
    0.9193  -10.9420    7.0445 C   0  0  0  0  0  0  0  0  0  0  0  0
    1.3375  -11.8191    6.0353 C   0  0  0  0  0  0  0  0  0  0  0  0
    1.5606  -11.0272    4.9169 C   0  0  0  0  0  0  0  0  0  0  0  0
    2.2090  -11.3959    3.6447 C   0  0  0  0  0  0  0  0  0  0  0  0
    2.0921  -12.6976    3.1327 C   0  0  0  0  0  0  0  0  0  0  0  0
    2.6688  -13.0360    1.9034 C   0  0  0  0  0  0  0  0  0  0  0  0
    3.3444  -12.0703    1.1680 C   0  0  0  0  0  0  0  0  0  0  0  0
    3.8569  -12.3827   -0.0281 F   0  0  0  0  0  0  0  0  0  0  0  0
    3.5032  -10.7875    1.6639 C   0  0  0  0  0  0  0  0  0  0  0  0
    2.9818  -10.4707    2.9177 C   0  0  0  0  0  0  0  0  0  0  0  0
    0.5294   -8.6999    3.1415 C   0  0  0  0  0  0  0  0  0  0  0  0
    0.5010   -7.5642    2.3269 C   0  0  0  0  0  0  0  0  0  0  0  0
   -0.4863   -1.4028    1.2687 N   0  0  0  0  0  0  0  0  0  0  0  0
   -0.8597   -1.6281   -0.1090 C   0  0  0  0  0  0  0  0  0  0  0  0
   -1.2494   -0.5319    1.9597 N   0  0  0  0  0  0  0  0  0  0  0  0
   -0.6688   -0.4720    3.1540 C   0  0  0  0  0  0  0  0  0  0  0  0
    1.9927   -0.9736    6.3020 H   0  0  0  0  0  0  0  0  0  0  0  0
    0.4863   -0.0764    5.7184 H   0  0  0  0  0  0  0  0  0  0  0  0
    2.1923   -2.1389    4.2271 H   0  0  0  0  0  0  0  0  0  0  0  0
    2.5832   -2.4118    1.5097 H   0  0  0  0  0  0  0  0  0  0  0  0
    1.4148   -3.1167    0.3973 H   0  0  0  0  0  0  0  0  0  0  0  0
    2.3490   -4.1952    2.8950 H   0  0  0  0  0  0  0  0  0  0  0  0
    1.3762   -5.2222    4.6476 H   0  0  0  0  0  0  0  0  0  0  0  0
    1.4643   -7.2227    6.0747 H   0  0  0  0  0  0  0  0  0  0  0  0
    0.6882  -11.1650    8.0791 H   0  0  0  0  0  0  0  0  0  0  0  0
    1.5311  -12.8782    6.1346 H   0  0  0  0  0  0  0  0  0  0  0  0
    1.5456  -13.4632    3.6783 H   0  0  0  0  0  0  0  0  0  0  0  0
    2.5846  -14.0437    1.5102 H   0  0  0  0  0  0  0  0  0  0  0  0
    4.0287  -10.0386    1.0795 H   0  0  0  0  0  0  0  0  0  0  0  0
    3.1660   -9.4696    3.3007 H   0  0  0  0  0  0  0  0  0  0  0  0
    0.2465   -9.6565    2.7074 H   0  0  0  0  0  0  0  0  0  0  0  0
    0.2246   -7.6657    1.2779 H   0  0  0  0  0  0  0  0  0  0  0  0
   -0.1010   -2.2004   -0.6397 H   0  0  0  0  0  0  0  0  0  0  0  0
   -0.9676   -0.6517   -0.5929 H   0  0  0  0  0  0  0  0  0  0  0  0
   -1.8145   -2.1591   -0.1224 H   0  0  0  0  0  0  0  0  0  0  0  0
   -1.1026    0.1731    3.9060 H   0  0  0  0  0  0  0  0  0  0  0  0
  1  2  2  0  0  0  0
  1 31  1  0  0  0  0
  1 32  1  0  0  0  0
  2  3  1  0  0  0  0
  2 33  1  0  0  0  0
  3  4  2  0  0  0  0
  3 30  1  0  0  0  0
  4  5  1  0  0  0  0
  4 27  1  0  0  0  0
  5  6  1  0  0  0  0
  5 34  1  0  0  0  0
  5 35  1  0  0  0  0
  6  7  1  0  0  0  0
  6 36  1  0  0  0  0
  7  8  2  0  0  0  0
  7  9  1  0  0  0  0
  9 10  2  0  0  0  0
  9 26  1  0  0  0  0
 10 11  1  0  0  0  0
 10 37  1  0  0  0  0
 11 12  2  0  0  0  0
 11 38  1  0  0  0  0
 12 13  1  0  0  0  0
 12 25  1  0  0  0  0
 13 14  1  0  0  0  0
 13 17  1  0  0  0  0
 14 15  2  0  0  0  0
 15 16  1  0  0  0  0
 15 39  1  0  0  0  0
 16 17  2  0  0  0  0
 16 40  1  0  0  0  0
 17 18  1  0  0  0  0
 18 19  2  0  0  0  0
 18 24  1  0  0  0  0
 19 20  1  0  0  0  0
 19 41  1  0  0  0  0
 20 21  2  0  0  0  0
 20 42  1  0  0  0  0
 21 22  1  0  0  0  0
 21 23  1  0  0  0  0
 23 24  2  0  0  0  0
 23 43  1  0  0  0  0
 24 44  1  0  0  0  0
 25 26  2  0  0  0  0
 25 45  1  0  0  0  0
 26 46  1  0  0  0  0
 27 28  1  0  0  0  0
 27 29  1  0  0  0  0
 28 47  1  0  0  0  0
 28 48  1  0  0  0  0
 28 49  1  0  0  0  0
 29 30  2  0  0  0  0
 30 50  1  0  0  0  0
M  END
$$$$
