
 OpenBabel01122422413D

 42 45  0  0  0  0  0  0  0  0999 V2000
    5.5986    1.0883   -5.2420 O   0  0  0  0  0  0  0  0  0  0  0  0
    5.3578    0.5002   -4.1995 C   0  0  0  0  0  0  0  0  0  0  0  0
    5.7236   -0.7824   -3.9978 O   0  0  0  0  0  0  0  0  0  0  0  0
    4.6347    1.1192   -3.0553 C   0  0  0  0  0  0  0  0  0  0  0  0
    3.8604    2.1822   -3.3368 C   0  0  0  0  0  0  0  0  0  0  0  0
    3.1962    2.9206   -2.3517 N   0  0  0  0  0  0  0  0  0  0  0  0
    2.4096    4.0792   -2.7010 C   0  0  0  0  0  0  0  0  0  0  0  0
    2.2941    5.1635   -1.8212 C   0  0  0  0  0  0  0  0  0  0  0  0
    1.5006    6.2716   -2.1277 C   0  0  0  0  0  0  0  0  0  0  0  0
    0.7968    6.3294   -3.3310 C   0  0  0  0  0  0  0  0  0  0  0  0
   -0.0777    7.4547   -3.5889 C   0  0  0  0  0  0  0  0  0  0  0  0
   -0.3838    7.9816   -4.8187 C   0  0  0  0  0  0  0  0  0  0  0  0
    0.0850    7.5500   -5.9606 F   0  0  0  0  0  0  0  0  0  0  0  0
   -1.2331    9.0508   -4.6269 N   0  0  0  0  0  0  0  0  0  0  0  0
   -1.8099    9.9021   -5.6086 C   0  0  0  0  0  0  0  0  0  0  0  0
   -1.6171    9.6619   -6.9753 C   0  0  0  0  0  0  0  0  0  0  0  0
   -2.1858   10.5181   -7.9205 C   0  0  0  0  0  0  0  0  0  0  0  0
   -2.9478   11.6095   -7.5102 C   0  0  0  0  0  0  0  0  0  0  0  0
   -3.1464   11.8498   -6.1521 C   0  0  0  0  0  0  0  0  0  0  0  0
   -2.5858   10.9961   -5.2003 C   0  0  0  0  0  0  0  0  0  0  0  0
   -1.4858    9.2413   -3.2999 N   0  0  0  0  0  0  0  0  0  0  0  0
   -0.7971    8.2746   -2.6924 C   0  0  0  0  0  0  0  0  0  0  0  0
    0.9398    5.2760   -4.2401 C   0  0  0  0  0  0  0  0  0  0  0  0
    1.7429    4.1687   -3.9327 C   0  0  0  0  0  0  0  0  0  0  0  0
    3.2956    2.5414   -0.9939 C   0  0  0  0  0  0  0  0  0  0  0  0
    2.7243    3.0510   -0.0317 O   0  0  0  0  0  0  0  0  0  0  0  0
    4.1646    1.3688   -0.7015 C   0  0  0  0  0  0  0  0  0  0  0  0
    4.7929    0.7084   -1.6795 C   0  0  0  0  0  0  0  0  0  0  0  0
    5.3451   -1.2102   -3.2105 H   0  0  0  0  0  0  0  0  0  0  0  0
    3.7743    2.5390   -4.3603 H   0  0  0  0  0  0  0  0  0  0  0  0
    2.8399    5.1884   -0.8813 H   0  0  0  0  0  0  0  0  0  0  0  0
    1.4528    7.0843   -1.4070 H   0  0  0  0  0  0  0  0  0  0  0  0
   -1.0347    8.8248   -7.3428 H   0  0  0  0  0  0  0  0  0  0  0  0
   -2.0328   10.3293   -8.9806 H   0  0  0  0  0  0  0  0  0  0  0  0
   -3.3848   12.2755   -8.2496 H   0  0  0  0  0  0  0  0  0  0  0  0
   -3.7411   12.7018   -5.8307 H   0  0  0  0  0  0  0  0  0  0  0  0
   -2.7540   11.2059   -4.1449 H   0  0  0  0  0  0  0  0  0  0  0  0
   -0.8480    8.2039   -1.6127 H   0  0  0  0  0  0  0  0  0  0  0  0
    0.4085    5.2828   -5.1898 H   0  0  0  0  0  0  0  0  0  0  0  0
    1.7779    3.3609   -4.6588 H   0  0  0  0  0  0  0  0  0  0  0  0
    4.2605    1.1020    0.3440 H   0  0  0  0  0  0  0  0  0  0  0  0
    5.4516   -0.1119   -1.4203 H   0  0  0  0  0  0  0  0  0  0  0  0
  1  2  2  0  0  0  0
  2  3  1  0  0  0  0
  2  4  1  0  0  0  0
  3 29  1  0  0  0  0
  4  5  2  0  0  0  0
  4 28  1  0  0  0  0
  5  6  1  0  0  0  0
  5 30  1  0  0  0  0
  6  7  1  0  0  0  0
  6 25  1  0  0  0  0
  7  8  2  0  0  0  0
  7 24  1  0  0  0  0
  8  9  1  0  0  0  0
  8 31  1  0  0  0  0
  9 10  2  0  0  0  0
  9 32  1  0  0  0  0
 10 11  1  0  0  0  0
 10 23  1  0  0  0  0
 11 12  2  0  0  0  0
 11 22  1  0  0  0  0
 12 13  1  0  0  0  0
 12 14  1  0  0  0  0
 14 15  1  0  0  0  0
 14 21  1  0  0  0  0
 15 16  2  0  0  0  0
 15 20  1  0  0  0  0
 16 17  1  0  0  0  0
 16 33  1  0  0  0  0
 17 18  2  0  0  0  0
 17 34  1  0  0  0  0
 18 19  1  0  0  0  0
 18 35  1  0  0  0  0
 19 20  2  0  0  0  0
 19 36  1  0  0  0  0
 20 37  1  0  0  0  0
 21 22  2  0  0  0  0
 22 38  1  0  0  0  0
 23 24  2  0  0  0  0
 23 39  1  0  0  0  0
 24 40  1  0  0  0  0
 25 26  2  0  0  0  0
 25 27  1  0  0  0  0
 27 28  2  0  0  0  0
 27 41  1  0  0  0  0
 28 42  1  0  0  0  0
M  END
$$$$
