
 OpenBabel01122422353D

 50 53  0  0  0  0  0  0  0  0999 V2000
    0.9917   -1.9765   -0.1340 C   0  0  0  0  0  0  0  0  0  0  0  0
    2.4779   -2.0223    0.0595 C   0  0  0  0  0  0  0  0  0  0  0  0
    3.0183   -2.0702    1.3288 C   0  0  0  0  0  0  0  0  0  0  0  0
    4.3965   -2.1541    1.4480 C   0  0  0  0  0  0  0  0  0  0  0  0
    5.2146   -2.1834    0.2955 C   0  0  0  0  0  0  0  0  0  0  0  0
    6.6310   -2.2603    0.3144 C   0  0  0  0  0  0  0  0  0  0  0  0
    7.3266   -2.3504    1.5007 O   0  0  0  0  0  0  0  0  0  0  0  0
    7.3551   -2.2481   -0.8830 C   0  0  0  0  0  0  0  0  0  0  0  0
    8.8428   -2.2786   -0.9946 C   0  0  0  0  0  0  0  0  0  0  0  0
    9.3784   -2.3166   -2.0975 O   0  0  0  0  0  0  0  0  0  0  0  0
    9.5551   -2.2530    0.1804 N   0  0  0  0  0  0  0  0  0  0  0  0
   10.9988   -2.2727    0.2280 C   0  0  0  0  0  0  0  0  0  0  0  0
   11.5462   -3.6973    0.1670 C   0  0  0  0  0  0  0  0  0  0  0  0
   13.0507   -3.7097    0.1722 C   0  0  0  0  0  0  0  0  0  0  0  0
   13.7546   -3.5983   -1.0302 C   0  0  0  0  0  0  0  0  0  0  0  0
   15.1368   -3.6018   -0.9917 C   0  0  0  0  0  0  0  0  0  0  0  0
   15.8488   -3.7052    0.1457 N   0  0  0  0  0  0  0  0  0  0  0  0
   15.1558   -3.7706    1.3063 C   0  0  0  0  0  0  0  0  0  0  0  0
   15.8382   -3.8261    2.5204 O   0  0  0  0  0  0  0  0  0  0  0  0
   17.1397   -3.3752    2.5243 C   0  0  0  0  0  0  0  0  0  0  0  0
   17.5153   -2.1666    1.9293 C   0  0  0  0  0  0  0  0  0  0  0  0
   18.8550   -1.7860    1.9053 C   0  0  0  0  0  0  0  0  0  0  0  0
   19.8149   -2.5869    2.5214 C   0  0  0  0  0  0  0  0  0  0  0  0
   19.4321   -3.7590    3.1770 C   0  0  0  0  0  0  0  0  0  0  0  0
   18.0917   -4.1519    3.1848 C   0  0  0  0  0  0  0  0  0  0  0  0
   13.7705   -3.7892    1.3686 C   0  0  0  0  0  0  0  0  0  0  0  0
    6.6185   -2.1819   -2.0458 C   0  0  0  0  0  0  0  0  0  0  0  0
    5.2666   -2.1253   -2.0934 N   0  0  0  0  0  0  0  0  0  0  0  0
    4.5706   -2.1192   -0.9588 C   0  0  0  0  0  0  0  0  0  0  0  0
    3.2414   -2.0494   -1.0558 N   0  0  0  0  0  0  0  0  0  0  0  0
    0.4712   -1.7734    0.8075 H   0  0  0  0  0  0  0  0  0  0  0  0
    0.6412   -2.9379   -0.5212 H   0  0  0  0  0  0  0  0  0  0  0  0
    0.7265   -1.1855   -0.8426 H   0  0  0  0  0  0  0  0  0  0  0  0
    2.3889   -2.0425    2.2117 H   0  0  0  0  0  0  0  0  0  0  0  0
    4.8032   -2.1899    2.4524 H   0  0  0  0  0  0  0  0  0  0  0  0
    6.7190   -2.3626    2.2557 H   0  0  0  0  0  0  0  0  0  0  0  0
    9.0317   -2.2992    1.0509 H   0  0  0  0  0  0  0  0  0  0  0  0
   11.2939   -1.7849    1.1637 H   0  0  0  0  0  0  0  0  0  0  0  0
   11.3860   -1.6683   -0.6001 H   0  0  0  0  0  0  0  0  0  0  0  0
   11.1809   -4.2112   -0.7315 H   0  0  0  0  0  0  0  0  0  0  0  0
   11.1676   -4.2841    1.0138 H   0  0  0  0  0  0  0  0  0  0  0  0
   13.2386   -3.5084   -1.9814 H   0  0  0  0  0  0  0  0  0  0  0  0
   15.7260   -3.5093   -1.8991 H   0  0  0  0  0  0  0  0  0  0  0  0
   16.7743   -1.5416    1.4395 H   0  0  0  0  0  0  0  0  0  0  0  0
   19.1465   -0.8757    1.3891 H   0  0  0  0  0  0  0  0  0  0  0  0
   20.8614   -2.2983    2.4864 H   0  0  0  0  0  0  0  0  0  0  0  0
   20.1822   -4.3746    3.6659 H   0  0  0  0  0  0  0  0  0  0  0  0
   17.7992   -5.0728    3.6804 H   0  0  0  0  0  0  0  0  0  0  0  0
   13.2705   -3.8505    2.3288 H   0  0  0  0  0  0  0  0  0  0  0  0
    7.1007   -2.1679   -3.0236 H   0  0  0  0  0  0  0  0  0  0  0  0
  1  2  1  0  0  0  0
  1 31  1  0  0  0  0
  1 32  1  0  0  0  0
  1 33  1  0  0  0  0
  2  3  2  0  0  0  0
  2 30  1  0  0  0  0
  3  4  1  0  0  0  0
  3 34  1  0  0  0  0
  4  5  2  0  0  0  0
  4 35  1  0  0  0  0
  5  6  1  0  0  0  0
  5 29  1  0  0  0  0
  6  7  1  0  0  0  0
  6  8  2  0  0  0  0
  7 36  1  0  0  0  0
  8  9  1  0  0  0  0
  8 27  1  0  0  0  0
  9 10  2  0  0  0  0
  9 11  1  0  0  0  0
 11 12  1  0  0  0  0
 11 37  1  0  0  0  0
 12 13  1  0  0  0  0
 12 38  1  0  0  0  0
 12 39  1  0  0  0  0
 13 14  1  0  0  0  0
 13 40  1  0  0  0  0
 13 41  1  0  0  0  0
 14 15  2  0  0  0  0
 14 26  1  0  0  0  0
 15 16  1  0  0  0  0
 15 42  1  0  0  0  0
 16 17  2  0  0  0  0
 16 43  1  0  0  0  0
 17 18  1  0  0  0  0
 18 19  1  0  0  0  0
 18 26  2  0  0  0  0
 19 20  1  0  0  0  0
 20 21  2  0  0  0  0
 20 25  1  0  0  0  0
 21 22  1  0  0  0  0
 21 44  1  0  0  0  0
 22 23  2  0  0  0  0
 22 45  1  0  0  0  0
 23 24  1  0  0  0  0
 23 46  1  0  0  0  0
 24 25  2  0  0  0  0
 24 47  1  0  0  0  0
 25 48  1  0  0  0  0
 26 49  1  0  0  0  0
 27 28  2  0  0  0  0
 27 50  1  0  0  0  0
 28 29  1  0  0  0  0
 29 30  2  0  0  0  0
M  END
$$$$
