
 OpenBabel01122422413D

 43 46  0  0  0  0  0  0  0  0999 V2000
    1.0403   -0.2948    0.2557 O   0  0  0  0  0  0  0  0  0  0  0  0
    2.2064    0.0137    0.0163 C   0  0  0  0  0  0  0  0  0  0  0  0
    2.8750   -0.3179   -1.1433 N   0  0  0  0  0  0  0  0  0  0  0  0
    2.2792   -1.0466   -2.1413 C   0  0  0  0  0  0  0  0  0  0  0  0
    0.9779   -1.2954   -2.2576 N   0  0  0  0  0  0  0  0  0  0  0  0
    0.9079   -2.1541   -3.2857 N   0  0  0  0  0  0  0  0  0  0  0  0
   -0.3230   -2.7564   -3.6524 C   0  0  0  0  0  0  0  0  0  0  0  0
   -1.5021   -2.3661   -2.9926 C   0  0  0  0  0  0  0  0  0  0  0  0
   -2.7166   -2.9547   -3.3354 C   0  0  0  0  0  0  0  0  0  0  0  0
   -3.8365   -2.5720   -2.7083 F   0  0  0  0  0  0  0  0  0  0  0  0
   -2.7868   -3.9334   -4.3147 C   0  0  0  0  0  0  0  0  0  0  0  0
   -1.6175   -4.3194   -4.9554 C   0  0  0  0  0  0  0  0  0  0  0  0
   -1.6692   -5.2738   -5.8937 F   0  0  0  0  0  0  0  0  0  0  0  0
   -0.3855   -3.7427   -4.6425 C   0  0  0  0  0  0  0  0  0  0  0  0
    2.1682   -2.3202   -3.8057 C   0  0  0  0  0  0  0  0  0  0  0  0
    3.0441   -1.6148   -3.1209 N   0  0  0  0  0  0  0  0  0  0  0  0
    2.9798    0.7105    1.0268 C   0  0  0  0  0  0  0  0  0  0  0  0
    2.6336    0.9205    2.3494 C   0  0  0  0  0  0  0  0  0  0  0  0
    3.6525    1.6969    2.9265 C   0  0  0  0  0  0  0  0  0  0  0  0
    4.5830    1.9179    1.9327 C   0  0  0  0  0  0  0  0  0  0  0  0
    5.8856    2.6365    1.9582 C   0  0  0  0  0  0  0  0  0  0  0  0
    5.6330    4.0182    1.6947 O   0  0  0  0  0  0  0  0  0  0  0  0
    6.7273    4.8462    1.7333 C   0  0  0  0  0  0  0  0  0  0  0  0
    8.0203    4.4711    2.1088 C   0  0  0  0  0  0  0  0  0  0  0  0
    9.0618    5.4038    2.0917 C   0  0  0  0  0  0  0  0  0  0  0  0
    8.8193    6.7183    1.7019 C   0  0  0  0  0  0  0  0  0  0  0  0
    7.5311    7.1048    1.3396 C   0  0  0  0  0  0  0  0  0  0  0  0
    6.4893    6.1723    1.3596 C   0  0  0  0  0  0  0  0  0  0  0  0
    4.1960    1.2939    0.7699 O   0  0  0  0  0  0  0  0  0  0  0  0
    3.8668   -0.1610   -1.2235 H   0  0  0  0  0  0  0  0  0  0  0  0
   -1.4978   -1.6077   -2.2107 H   0  0  0  0  0  0  0  0  0  0  0  0
   -3.7360   -4.3895   -4.5704 H   0  0  0  0  0  0  0  0  0  0  0  0
    0.4878   -4.1023   -5.1756 H   0  0  0  0  0  0  0  0  0  0  0  0
    2.3862   -2.9507   -4.6576 H   0  0  0  0  0  0  0  0  0  0  0  0
    1.7303    0.5491    2.8150 H   0  0  0  0  0  0  0  0  0  0  0  0
    3.7077    2.0545    3.9453 H   0  0  0  0  0  0  0  0  0  0  0  0
    6.5676    2.2171    1.2115 H   0  0  0  0  0  0  0  0  0  0  0  0
    6.3096    2.5226    2.9643 H   0  0  0  0  0  0  0  0  0  0  0  0
    8.2602    3.4613    2.4225 H   0  0  0  0  0  0  0  0  0  0  0  0
   10.0644    5.0996    2.3817 H   0  0  0  0  0  0  0  0  0  0  0  0
    9.6330    7.4388    1.6819 H   0  0  0  0  0  0  0  0  0  0  0  0
    7.3374    8.1312    1.0383 H   0  0  0  0  0  0  0  0  0  0  0  0
    5.4871    6.4837    1.0746 H   0  0  0  0  0  0  0  0  0  0  0  0
  1  2  2  0  0  0  0
  2  3  1  0  0  0  0
  2 17  1  0  0  0  0
  3  4  1  0  0  0  0
  3 30  1  0  0  0  0
  4  5  2  0  0  0  0
  4 16  1  0  0  0  0
  5  6  1  0  0  0  0
  6  7  1  0  0  0  0
  6 15  1  0  0  0  0
  7  8  2  0  0  0  0
  7 14  1  0  0  0  0
  8  9  1  0  0  0  0
  8 31  1  0  0  0  0
  9 10  1  0  0  0  0
  9 11  2  0  0  0  0
 11 12  1  0  0  0  0
 11 32  1  0  0  0  0
 12 13  1  0  0  0  0
 12 14  2  0  0  0  0
 14 33  1  0  0  0  0
 15 16  2  0  0  0  0
 15 34  1  0  0  0  0
 17 18  2  0  0  0  0
 17 29  1  0  0  0  0
 18 19  1  0  0  0  0
 18 35  1  0  0  0  0
 19 20  2  0  0  0  0
 19 36  1  0  0  0  0
 20 21  1  0  0  0  0
 20 29  1  0  0  0  0
 21 22  1  0  0  0  0
 21 37  1  0  0  0  0
 21 38  1  0  0  0  0
 22 23  1  0  0  0  0
 23 24  2  0  0  0  0
 23 28  1  0  0  0  0
 24 25  1  0  0  0  0
 24 39  1  0  0  0  0
 25 26  2  0  0  0  0
 25 40  1  0  0  0  0
 26 27  1  0  0  0  0
 26 41  1  0  0  0  0
 27 28  2  0  0  0  0
 27 42  1  0  0  0  0
 28 43  1  0  0  0  0
M  END
$$$$
