
 OpenBabel01122422413D

 49 52  0  0  0  0  0  0  0  0999 V2000
    1.1058    0.1762   -2.8996 N   0  0  0  0  0  0  0  0  0  0  0  0
    0.6261    0.0917   -1.8493 C   0  0  0  0  0  0  0  0  0  0  0  0
   -0.0282    0.0464   -0.5747 C   0  0  0  0  0  0  0  0  0  0  0  0
   -0.8533    1.1315   -0.2451 C   0  0  0  0  0  0  0  0  0  0  0  0
   -1.4752    1.1474    0.9883 C   0  0  0  0  0  0  0  0  0  0  0  0
   -1.3069    0.1829    1.9117 N   0  0  0  0  0  0  0  0  0  0  0  0
   -0.5434   -0.8764    1.5532 C   0  0  0  0  0  0  0  0  0  0  0  0
    0.0711   -1.0351    0.3110 C   0  0  0  0  0  0  0  0  0  0  0  0
    0.6143   -2.3152   -0.0471 N   0  0  0  0  0  0  0  0  0  0  0  0
   -0.3376   -3.4500   -0.0065 C   0  0  0  0  0  0  0  0  0  0  0  0
   -0.7188   -4.0160   -1.3636 C   0  0  0  0  0  0  0  0  0  0  0  0
   -0.3911   -3.3840   -2.5725 C   0  0  0  0  0  0  0  0  0  0  0  0
   -0.5806   -4.0241   -3.7961 C   0  0  0  0  0  0  0  0  0  0  0  0
   -1.1420   -5.2942   -3.8348 C   0  0  0  0  0  0  0  0  0  0  0  0
   -1.5540   -5.9042   -2.6524 C   0  0  0  0  0  0  0  0  0  0  0  0
   -1.3538   -5.2665   -1.4245 C   0  0  0  0  0  0  0  0  0  0  0  0
    1.9891   -2.4557   -0.3233 C   0  0  0  0  0  0  0  0  0  0  0  0
    2.7653   -1.5051   -0.2136 O   0  0  0  0  0  0  0  0  0  0  0  0
    2.4616   -3.8724   -0.6586 C   0  0  0  0  0  0  0  0  0  0  0  0
    3.8711   -3.9930   -1.1329 C   0  0  0  0  0  0  0  0  0  0  0  0
    4.1351   -4.1583   -2.4362 N   0  0  0  0  0  0  0  0  0  0  0  0
    5.4688   -4.4202   -2.5017 N   0  0  0  0  0  0  0  0  0  0  0  0
    6.0981   -4.7369   -3.7407 C   0  0  0  0  0  0  0  0  0  0  0  0
    5.3677   -4.6324   -4.9377 C   0  0  0  0  0  0  0  0  0  0  0  0
    5.9616   -4.9614   -6.1596 C   0  0  0  0  0  0  0  0  0  0  0  0
    7.2829   -5.4062   -6.1949 C   0  0  0  0  0  0  0  0  0  0  0  0
    8.0136   -5.5161   -5.0155 C   0  0  0  0  0  0  0  0  0  0  0  0
    7.4282   -5.1777   -3.7901 C   0  0  0  0  0  0  0  0  0  0  0  0
    6.0362   -4.3957   -1.2465 C   0  0  0  0  0  0  0  0  0  0  0  0
    5.0324   -4.1275   -0.3485 C   0  0  0  0  0  0  0  0  0  0  0  0
   -1.0267    1.9406   -0.9494 H   0  0  0  0  0  0  0  0  0  0  0  0
   -2.1412    1.9580    1.2727 H   0  0  0  0  0  0  0  0  0  0  0  0
   -0.4327   -1.6253    2.3341 H   0  0  0  0  0  0  0  0  0  0  0  0
   -1.2584   -3.1666    0.5169 H   0  0  0  0  0  0  0  0  0  0  0  0
    0.1340   -4.2451    0.5833 H   0  0  0  0  0  0  0  0  0  0  0  0
    0.0892   -2.4131   -2.5928 H   0  0  0  0  0  0  0  0  0  0  0  0
   -0.2527   -3.5376   -4.7120 H   0  0  0  0  0  0  0  0  0  0  0  0
   -1.2495   -5.8083   -4.7858 H   0  0  0  0  0  0  0  0  0  0  0  0
   -2.0060   -6.8919   -2.6865 H   0  0  0  0  0  0  0  0  0  0  0  0
   -1.6628   -5.7763   -0.5142 H   0  0  0  0  0  0  0  0  0  0  0  0
    1.8276   -4.3070   -1.4329 H   0  0  0  0  0  0  0  0  0  0  0  0
    2.3484   -4.4848    0.2429 H   0  0  0  0  0  0  0  0  0  0  0  0
    4.3358   -4.2906   -4.9310 H   0  0  0  0  0  0  0  0  0  0  0  0
    5.3921   -4.8737   -7.0770 H   0  0  0  0  0  0  0  0  0  0  0  0
    7.7416   -5.6698   -7.1478 H   0  0  0  0  0  0  0  0  0  0  0  0
    9.0418   -5.8687   -5.0464 H   0  0  0  0  0  0  0  0  0  0  0  0
    8.0325   -5.2896   -2.8950 H   0  0  0  0  0  0  0  0  0  0  0  0
    7.0872   -4.5813   -1.0879 H   0  0  0  0  0  0  0  0  0  0  0  0
    5.1194   -4.0776    0.7279 H   0  0  0  0  0  0  0  0  0  0  0  0
  1  2  3  0  0  0  0
  2  3  1  0  0  0  0
  3  4  2  0  0  0  0
  3  8  1  0  0  0  0
  4  5  1  0  0  0  0
  4 31  1  0  0  0  0
  5  6  2  0  0  0  0
  5 32  1  0  0  0  0
  6  7  1  0  0  0  0
  7  8  2  0  0  0  0
  7 33  1  0  0  0  0
  8  9  1  0  0  0  0
  9 10  1  0  0  0  0
  9 17  1  0  0  0  0
 10 11  1  0  0  0  0
 10 34  1  0  0  0  0
 10 35  1  0  0  0  0
 11 12  2  0  0  0  0
 11 16  1  0  0  0  0
 12 13  1  0  0  0  0
 12 36  1  0  0  0  0
 13 14  2  0  0  0  0
 13 37  1  0  0  0  0
 14 15  1  0  0  0  0
 14 38  1  0  0  0  0
 15 16  2  0  0  0  0
 15 39  1  0  0  0  0
 16 40  1  0  0  0  0
 17 18  2  0  0  0  0
 17 19  1  0  0  0  0
 19 20  1  0  0  0  0
 19 41  1  0  0  0  0
 19 42  1  0  0  0  0
 20 21  2  0  0  0  0
 20 30  1  0  0  0  0
 21 22  1  0  0  0  0
 22 23  1  0  0  0  0
 22 29  1  0  0  0  0
 23 24  2  0  0  0  0
 23 28  1  0  0  0  0
 24 25  1  0  0  0  0
 24 43  1  0  0  0  0
 25 26  2  0  0  0  0
 25 44  1  0  0  0  0
 26 27  1  0  0  0  0
 26 45  1  0  0  0  0
 27 28  2  0  0  0  0
 27 46  1  0  0  0  0
 28 47  1  0  0  0  0
 29 30  2  0  0  0  0
 29 48  1  0  0  0  0
 30 49  1  0  0  0  0
M  END
$$$$
