
 OpenBabel01122422413D

 42 45  0  0  0  0  0  0  0  0999 V2000
    1.3150    0.9871    0.0882 O   0  0  0  0  0  0  0  0  0  0  0  0
    2.4006    0.4162    0.2114 C   0  0  0  0  0  0  0  0  0  0  0  0
    3.0179    0.1931    1.4422 N   0  0  0  0  0  0  0  0  0  0  0  0
    2.2426    0.2316    2.7674 S   0  0  3  0  0  0  0  0  0  0  0  0
    1.3973    1.3291    3.2102 O   0  0  0  0  0  0  0  0  0  0  0  0
    1.2605   -1.2674    2.8567 C   0  0  0  0  0  0  0  0  0  0  0  0
    1.8859   -2.5180    2.8335 C   0  0  0  0  0  0  0  0  0  0  0  0
    1.1255   -3.6756    3.0145 C   0  0  0  0  0  0  0  0  0  0  0  0
   -0.2493   -3.5809    3.2306 C   0  0  0  0  0  0  0  0  0  0  0  0
   -0.8736   -2.3336    3.2481 C   0  0  0  0  0  0  0  0  0  0  0  0
   -0.1204   -1.1701    3.0588 C   0  0  0  0  0  0  0  0  0  0  0  0
    3.4440    0.0602    4.0686 C   0  0  0  0  0  0  0  0  0  0  0  0
    4.8163    0.0544    3.7822 C   0  0  0  0  0  0  0  0  0  0  0  0
    5.6878   -0.0660    4.8445 C   0  0  0  0  0  0  0  0  0  0  0  0
    5.2909   -0.1615    6.1327 N   0  0  0  0  0  0  0  0  0  0  0  0
    3.9631   -0.1370    6.3785 C   0  0  0  0  0  0  0  0  0  0  0  0
    3.0089   -0.0253    5.3792 C   0  0  0  0  0  0  0  0  0  0  0  0
    3.0642   -0.1834   -1.0095 C   0  0  0  0  0  0  0  0  0  0  0  0
    2.1699   -0.7213   -1.8480 C   0  0  0  0  0  0  0  0  0  0  0  0
    2.2586   -2.0632   -2.2787 O   0  0  0  0  0  0  0  0  0  0  0  0
    3.0344   -2.8867   -1.4896 C   0  0  0  0  0  0  0  0  0  0  0  0
    2.7688   -4.0552   -1.2685 O   0  0  0  0  0  0  0  0  0  0  0  0
    4.2991   -2.2656   -1.0383 C   0  0  0  0  0  0  0  0  0  0  0  0
    5.4347   -3.0469   -0.8288 C   0  0  0  0  0  0  0  0  0  0  0  0
    6.6707   -2.4188   -0.6835 C   0  0  0  0  0  0  0  0  0  0  0  0
    6.7578   -1.0250   -0.7522 C   0  0  0  0  0  0  0  0  0  0  0  0
    5.5977   -0.2479   -0.8632 C   0  0  0  0  0  0  0  0  0  0  0  0
    4.3513   -0.8790   -0.9584 C   0  0  0  0  0  0  0  0  0  0  0  0
    2.9598   -2.6079    2.6803 H   0  0  0  0  0  0  0  0  0  0  0  0
    1.6009   -4.6514    3.0022 H   0  0  0  0  0  0  0  0  0  0  0  0
   -0.8415   -4.4835    3.3852 H   0  0  0  0  0  0  0  0  0  0  0  0
   -1.9468   -2.2632    3.4199 H   0  0  0  0  0  0  0  0  0  0  0  0
   -0.6145   -0.2030    3.0918 H   0  0  0  0  0  0  0  0  0  0  0  0
    5.1933    0.1338    2.7732 H   0  0  0  0  0  0  0  0  0  0  0  0
    6.7639   -0.0701    4.6957 H   0  0  0  0  0  0  0  0  0  0  0  0
    3.6810   -0.2067    7.4254 H   0  0  0  0  0  0  0  0  0  0  0  0
    1.9563    0.0108    5.6410 H   0  0  0  0  0  0  0  0  0  0  0  0
    1.1477   -0.3861   -1.9978 H   0  0  0  0  0  0  0  0  0  0  0  0
    5.3627   -4.1308   -0.8220 H   0  0  0  0  0  0  0  0  0  0  0  0
    7.5700   -3.0181   -0.5595 H   0  0  0  0  0  0  0  0  0  0  0  0
    7.7356   -0.5471   -0.7164 H   0  0  0  0  0  0  0  0  0  0  0  0
    5.6867    0.8359   -0.9041 H   0  0  0  0  0  0  0  0  0  0  0  0
  1  2  2  0  0  0  0
  2  3  1  0  0  0  0
  2 18  1  0  0  0  0
  3  4  2  0  0  0  0
  4  5  2  0  0  0  0
  4  6  1  0  0  0  0
  4 12  1  0  0  0  0
  6  7  2  0  0  0  0
  6 11  1  0  0  0  0
  7  8  1  0  0  0  0
  7 29  1  0  0  0  0
  8  9  2  0  0  0  0
  8 30  1  0  0  0  0
  9 10  1  0  0  0  0
  9 31  1  0  0  0  0
 10 11  2  0  0  0  0
 10 32  1  0  0  0  0
 11 33  1  0  0  0  0
 12 13  2  0  0  0  0
 12 17  1  0  0  0  0
 13 14  1  0  0  0  0
 13 34  1  0  0  0  0
 14 15  2  0  0  0  0
 14 35  1  0  0  0  0
 15 16  1  0  0  0  0
 16 17  2  0  0  0  0
 16 36  1  0  0  0  0
 17 37  1  0  0  0  0
 18 19  2  0  0  0  0
 18 28  1  0  0  0  0
 19 20  1  0  0  0  0
 19 38  1  0  0  0  0
 20 21  1  0  0  0  0
 21 22  2  0  0  0  0
 21 23  1  0  0  0  0
 23 24  2  0  0  0  0
 23 28  1  0  0  0  0
 24 25  1  0  0  0  0
 24 39  1  0  0  0  0
 25 26  2  0  0  0  0
 25 40  1  0  0  0  0
 26 27  1  0  0  0  0
 26 41  1  0  0  0  0
 27 28  2  0  0  0  0
 27 42  1  0  0  0  0
M  END
$$$$
