
 OpenBabel01122422413D

 52 54  0  0  1  0  0  0  0  0999 V2000
    4.5190   -1.2616    4.2792 C   0  0  0  0  0  0  0  0  0  0  0  0
    3.9849   -0.7727    3.0494 O   0  0  0  0  0  0  0  0  0  0  0  0
    3.9541   -1.6937    2.0392 C   0  0  0  0  0  0  0  0  0  0  0  0
    4.3438   -2.8528    2.1336 O   0  0  0  0  0  0  0  0  0  0  0  0
    3.2553   -1.0952    0.8015 C   0  0  3  0  0  0  0  0  0  0  0  0
    3.7262   -1.7740   -0.4032 N   0  0  0  0  0  0  0  0  0  0  0  0
    4.8868   -1.4021   -1.0421 C   0  0  0  0  0  0  0  0  0  0  0  0
    5.5476   -0.4285   -0.7032 O   0  0  0  0  0  0  0  0  0  0  0  0
    5.2952   -2.2962   -2.1848 C   0  0  0  0  0  0  0  0  0  0  0  0
    6.5428   -2.1930   -2.6899 C   0  0  0  0  0  0  0  0  0  0  0  0
    6.9560   -2.9476   -3.7924 N   0  0  0  0  0  0  0  0  0  0  0  0
    8.1817   -2.6756   -4.4770 C   0  0  0  0  0  0  0  0  0  0  0  0
    8.0654   -2.2103   -5.8040 C   0  0  0  0  0  0  0  0  0  0  0  0
    9.1828   -1.9208   -6.5919 C   0  0  0  0  0  0  0  0  0  0  0  0
    9.0143   -1.4630   -8.0102 C   0  0  0  0  0  0  0  0  0  0  0  0
   10.4498   -2.0988   -6.0391 C   0  0  0  0  0  0  0  0  0  0  0  0
   10.5851   -2.5419   -4.7181 C   0  0  0  0  0  0  0  0  0  0  0  0
    9.4622   -2.8392   -3.9275 C   0  0  0  0  0  0  0  0  0  0  0  0
    9.7685   -3.2596   -2.6608 O   0  0  0  0  0  0  0  0  0  0  0  0
    9.0668   -4.4129   -2.2077 C   0  0  0  0  0  0  0  0  0  0  0  0
    6.0996   -3.8862   -4.3999 C   0  0  0  0  0  0  0  0  0  0  0  0
    6.3871   -4.6270   -5.3369 O   0  0  0  0  0  0  0  0  0  0  0  0
    4.7240   -3.9566   -3.8642 C   0  0  0  0  0  0  0  0  0  0  0  0
    4.3527   -3.1864   -2.8379 C   0  0  0  0  0  0  0  0  0  0  0  0
    1.7469   -1.2080    0.9799 C   0  0  0  0  0  0  0  0  0  0  0  0
    1.0401   -0.1620    1.6015 C   0  0  0  0  0  0  0  0  0  0  0  0
   -0.3131   -0.3091    1.9194 C   0  0  0  0  0  0  0  0  0  0  0  0
   -0.9695   -1.4946    1.6093 C   0  0  0  0  0  0  0  0  0  0  0  0
   -2.2571   -1.6429    1.9459 F   0  0  0  0  0  0  0  0  0  0  0  0
   -0.3054   -2.5311    0.9716 C   0  0  0  0  0  0  0  0  0  0  0  0
    1.0443   -2.3818    0.6677 C   0  0  0  0  0  0  0  0  0  0  0  0
    1.6788   -3.4055    0.0764 F   0  0  0  0  0  0  0  0  0  0  0  0
    4.6280   -0.4118    4.9589 H   0  0  0  0  0  0  0  0  0  0  0  0
    5.5039   -1.7130    4.1282 H   0  0  0  0  0  0  0  0  0  0  0  0
    3.8254   -1.9790    4.7291 H   0  0  0  0  0  0  0  0  0  0  0  0
    3.5453   -0.0409    0.7151 H   0  0  0  0  0  0  0  0  0  0  0  0
    3.4059   -2.7282   -0.5083 H   0  0  0  0  0  0  0  0  0  0  0  0
    7.2705   -1.4907   -2.2890 H   0  0  0  0  0  0  0  0  0  0  0  0
    7.0729   -2.0608   -6.2265 H   0  0  0  0  0  0  0  0  0  0  0  0
    7.9606   -1.2791   -8.2484 H   0  0  0  0  0  0  0  0  0  0  0  0
    9.3846   -2.2285   -8.6992 H   0  0  0  0  0  0  0  0  0  0  0  0
    9.5573   -0.5282   -8.1793 H   0  0  0  0  0  0  0  0  0  0  0  0
   11.3397   -1.9005   -6.6327 H   0  0  0  0  0  0  0  0  0  0  0  0
   11.5837   -2.6851   -4.3102 H   0  0  0  0  0  0  0  0  0  0  0  0
    9.7163   -4.9427   -1.5027 H   0  0  0  0  0  0  0  0  0  0  0  0
    8.8125   -5.1089   -3.0141 H   0  0  0  0  0  0  0  0  0  0  0  0
    8.1765   -4.1123   -1.6514 H   0  0  0  0  0  0  0  0  0  0  0  0
    4.0429   -4.6266   -4.3750 H   0  0  0  0  0  0  0  0  0  0  0  0
    3.3160   -3.2105   -2.5211 H   0  0  0  0  0  0  0  0  0  0  0  0
    1.5475    0.7626    1.8738 H   0  0  0  0  0  0  0  0  0  0  0  0
   -0.8538    0.4854    2.4260 H   0  0  0  0  0  0  0  0  0  0  0  0
   -0.8266   -3.4514    0.7341 H   0  0  0  0  0  0  0  0  0  0  0  0
  1  2  1  0  0  0  0
  1 33  1  0  0  0  0
  1 34  1  0  0  0  0
  1 35  1  0  0  0  0
  2  3  1  0  0  0  0
  3  4  2  0  0  0  0
  3  5  1  0  0  0  0
  5  6  1  0  0  0  0
  5 25  1  0  0  0  0
  5 36  1  0  0  0  0
  6  7  1  0  0  0  0
  6 37  1  0  0  0  0
  7  8  2  0  0  0  0
  7  9  1  0  0  0  0
  9 10  2  0  0  0  0
  9 24  1  0  0  0  0
 10 11  1  0  0  0  0
 10 38  1  0  0  0  0
 11 12  1  0  0  0  0
 11 21  1  0  0  0  0
 12 13  2  0  0  0  0
 12 18  1  0  0  0  0
 13 14  1  0  0  0  0
 13 39  1  0  0  0  0
 14 15  1  0  0  0  0
 14 16  2  0  0  0  0
 15 40  1  0  0  0  0
 15 41  1  0  0  0  0
 15 42  1  0  0  0  0
 16 17  1  0  0  0  0
 16 43  1  0  0  0  0
 17 18  2  0  0  0  0
 17 44  1  0  0  0  0
 18 19  1  0  0  0  0
 19 20  1  0  0  0  0
 20 45  1  0  0  0  0
 20 46  1  0  0  0  0
 20 47  1  0  0  0  0
 21 22  2  0  0  0  0
 21 23  1  0  0  0  0
 23 24  2  0  0  0  0
 23 48  1  0  0  0  0
 24 49  1  0  0  0  0
 25 26  2  0  0  0  0
 25 31  1  0  0  0  0
 26 27  1  0  0  0  0
 26 50  1  0  0  0  0
 27 28  2  0  0  0  0
 27 51  1  0  0  0  0
 28 29  1  0  0  0  0
 28 30  1  0  0  0  0
 30 31  2  0  0  0  0
 30 52  1  0  0  0  0
 31 32  1  0  0  0  0
M  END
$$$$
