
 OpenBabel01122422413D

 46 49  0  0  0  0  0  0  0  0999 V2000
    4.7695   -1.2075   -4.4210 C   0  0  0  0  0  0  0  0  0  0  0  0
    4.2570   -0.9237   -3.1205 O   0  0  0  0  0  0  0  0  0  0  0  0
    4.9478   -1.5160   -2.1085 C   0  0  0  0  0  0  0  0  0  0  0  0
    5.9337   -2.2234   -2.2528 O   0  0  0  0  0  0  0  0  0  0  0  0
    4.3312   -1.1433   -0.7915 C   0  0  0  0  0  0  0  0  0  0  0  0
    2.9861   -0.9048   -0.8349 N   0  0  0  0  0  0  0  0  0  0  0  0
    2.3761   -0.6067    0.3244 C   0  0  0  0  0  0  0  0  0  0  0  0
    3.0341   -0.5363    1.5364 C   0  0  0  0  0  0  0  0  0  0  0  0
    4.4113   -0.7753    1.5798 C   0  0  0  0  0  0  0  0  0  0  0  0
    5.0912   -0.7220    2.8107 C   0  0  0  0  0  0  0  0  0  0  0  0
    6.4621   -0.9645    2.8982 C   0  0  0  0  0  0  0  0  0  0  0  0
    7.1819   -1.0028    4.1126 N   0  0  0  0  0  0  0  0  0  0  0  0
    6.6464   -1.0744    5.3921 C   0  0  0  0  0  0  0  0  0  0  0  0
    5.4515   -1.0591    5.6530 O   0  0  0  0  0  0  0  0  0  0  0  0
    7.6522   -1.1460    6.4275 C   0  0  0  0  0  0  0  0  0  0  0  0
    7.5925   -1.7439    7.6859 C   0  0  0  0  0  0  0  0  0  0  0  0
    6.5184   -2.5736    8.2356 C   0  0  0  0  0  0  0  0  0  0  0  0
    5.8284   -3.3079    7.5296 O   0  0  0  0  0  0  0  0  0  0  0  0
    6.3241   -2.5862    9.7176 C   0  0  0  0  0  0  0  0  0  0  0  0
    5.7742   -3.7273   10.3186 C   0  0  0  0  0  0  0  0  0  0  0  0
    5.6238   -3.7907   11.7070 C   0  0  0  0  0  0  0  0  0  0  0  0
    6.0064   -2.7108   12.5023 C   0  0  0  0  0  0  0  0  0  0  0  0
    6.5197   -1.5582   11.9108 C   0  0  0  0  0  0  0  0  0  0  0  0
    6.6705   -1.4917   10.5237 C   0  0  0  0  0  0  0  0  0  0  0  0
    8.7708   -1.4902    8.3771 N   0  0  0  0  0  0  0  0  0  0  0  0
    9.5161   -0.7711    7.5778 C   0  0  0  0  0  0  0  0  0  0  0  0
    8.8848   -0.5327    6.3961 N   0  0  0  0  0  0  0  0  0  0  0  0
    7.1742   -1.2044    1.7240 C   0  0  0  0  0  0  0  0  0  0  0  0
    6.5118   -1.2689    0.4934 C   0  0  0  0  0  0  0  0  0  0  0  0
    5.1103   -1.0778    0.3912 C   0  0  0  0  0  0  0  0  0  0  0  0
    4.1026   -0.7489   -5.1558 H   0  0  0  0  0  0  0  0  0  0  0  0
    4.7948   -2.2867   -4.6021 H   0  0  0  0  0  0  0  0  0  0  0  0
    5.7670   -0.7718   -4.5367 H   0  0  0  0  0  0  0  0  0  0  0  0
    1.3071   -0.4240    0.2572 H   0  0  0  0  0  0  0  0  0  0  0  0
    2.4734   -0.3001    2.4367 H   0  0  0  0  0  0  0  0  0  0  0  0
    4.5162   -0.4899    3.7034 H   0  0  0  0  0  0  0  0  0  0  0  0
    8.1708   -1.1801    4.0208 H   0  0  0  0  0  0  0  0  0  0  0  0
    5.4759   -4.5775    9.7084 H   0  0  0  0  0  0  0  0  0  0  0  0
    5.2150   -4.6863   12.1681 H   0  0  0  0  0  0  0  0  0  0  0  0
    5.9029   -2.7665   13.5834 H   0  0  0  0  0  0  0  0  0  0  0  0
    6.8112   -0.7127   12.5283 H   0  0  0  0  0  0  0  0  0  0  0  0
    7.0707   -0.5800   10.0875 H   0  0  0  0  0  0  0  0  0  0  0  0
   10.5045   -0.3937    7.8016 H   0  0  0  0  0  0  0  0  0  0  0  0
    9.2439    0.0439    5.6484 H   0  0  0  0  0  0  0  0  0  0  0  0
    8.2466   -1.3812    1.7406 H   0  0  0  0  0  0  0  0  0  0  0  0
    7.1125   -1.4849   -0.3880 H   0  0  0  0  0  0  0  0  0  0  0  0
  1  2  1  0  0  0  0
  1 31  1  0  0  0  0
  1 32  1  0  0  0  0
  1 33  1  0  0  0  0
  2  3  1  0  0  0  0
  3  4  2  0  0  0  0
  3  5  1  0  0  0  0
  5  6  2  0  0  0  0
  5 30  1  0  0  0  0
  6  7  1  0  0  0  0
  7  8  2  0  0  0  0
  7 34  1  0  0  0  0
  8  9  1  0  0  0  0
  8 35  1  0  0  0  0
  9 10  2  0  0  0  0
  9 30  1  0  0  0  0
 10 11  1  0  0  0  0
 10 36  1  0  0  0  0
 11 12  1  0  0  0  0
 11 28  2  0  0  0  0
 12 13  1  0  0  0  0
 12 37  1  0  0  0  0
 13 14  2  0  0  0  0
 13 15  1  0  0  0  0
 15 16  2  0  0  0  0
 15 27  1  0  0  0  0
 16 17  1  0  0  0  0
 16 25  1  0  0  0  0
 17 18  2  0  0  0  0
 17 19  1  0  0  0  0
 19 20  2  0  0  0  0
 19 24  1  0  0  0  0
 20 21  1  0  0  0  0
 20 38  1  0  0  0  0
 21 22  2  0  0  0  0
 21 39  1  0  0  0  0
 22 23  1  0  0  0  0
 22 40  1  0  0  0  0
 23 24  2  0  0  0  0
 23 41  1  0  0  0  0
 24 42  1  0  0  0  0
 25 26  2  0  0  0  0
 26 27  1  0  0  0  0
 26 43  1  0  0  0  0
 27 44  1  0  0  0  0
 28 29  1  0  0  0  0
 28 45  1  0  0  0  0
 29 30  2  0  0  0  0
 29 46  1  0  0  0  0
M  END
$$$$
