
 OpenBabel01122422413D

 42 45  0  0  0  0  0  0  0  0999 V2000
    3.3580    1.4091   -1.9940 O   0  0  0  0  0  0  0  0  0  0  0  0
    2.5658    1.2273   -1.0854 C   0  0  0  0  0  0  0  0  0  0  0  0
    2.8657    1.1228    0.2298 O   0  0  0  0  0  0  0  0  0  0  0  0
    4.2627    1.1034    0.5649 C   0  0  0  0  0  0  0  0  0  0  0  0
    4.5998    2.2831    1.4283 C   0  0  0  0  0  0  0  0  0  0  0  0
    4.3672    3.5895    0.9999 C   0  0  0  0  0  0  0  0  0  0  0  0
    4.7094    4.6574    1.8274 C   0  0  0  0  0  0  0  0  0  0  0  0
    5.2885    4.4122    3.0737 C   0  0  0  0  0  0  0  0  0  0  0  0
    5.6194    5.5052    4.0175 C   0  0  0  0  0  0  0  0  0  0  0  0
    6.2399    5.2677    5.2457 C   0  0  0  0  0  0  0  0  0  0  0  0
    6.4853    6.3325    6.1102 C   0  0  0  0  0  0  0  0  0  0  0  0
    6.1160    7.6164    5.7330 C   0  0  0  0  0  0  0  0  0  0  0  0
    5.5199    7.7817    4.4970 C   0  0  0  0  0  0  0  0  0  0  0  0
    5.2682    6.7676    3.6395 N   0  0  0  0  0  0  0  0  0  0  0  0
    5.5441    3.1386    3.4918 N   0  0  0  0  0  0  0  0  0  0  0  0
    5.2021    2.1200    2.6692 C   0  0  0  0  0  0  0  0  0  0  0  0
    1.1222    0.9483   -1.3163 C   0  0  0  0  0  0  0  0  0  0  0  0
    0.2302    0.7186   -0.2559 C   0  0  0  0  0  0  0  0  0  0  0  0
   -1.0366    0.1868   -0.5151 C   0  0  0  0  0  0  0  0  0  0  0  0
   -1.4198   -0.0692   -1.8374 C   0  0  0  0  0  0  0  0  0  0  0  0
   -2.6009   -0.7852   -2.0852 N   0  0  0  0  0  0  0  0  0  0  0  0
   -3.3624   -1.3361   -1.0903 C   0  0  0  0  0  0  0  0  0  0  0  0
   -4.2858   -2.1093   -1.3148 O   0  0  0  0  0  0  0  0  0  0  0  0
   -3.0197   -0.9442    0.3003 C   0  0  0  0  0  0  0  0  0  0  0  0
   -1.9372   -0.2020    0.5702 C   0  0  0  0  0  0  0  0  0  0  0  0
   -0.5814    0.2865   -2.8907 C   0  0  0  0  0  0  0  0  0  0  0  0
   -0.9642    0.0670   -4.1569 F   0  0  0  0  0  0  0  0  0  0  0  0
    0.6917    0.7831   -2.6406 C   0  0  0  0  0  0  0  0  0  0  0  0
    4.9245    1.0817   -0.3080 H   0  0  0  0  0  0  0  0  0  0  0  0
    4.4299    0.1694    1.1145 H   0  0  0  0  0  0  0  0  0  0  0  0
    3.9207    3.7853    0.0298 H   0  0  0  0  0  0  0  0  0  0  0  0
    4.5163    5.6759    1.5018 H   0  0  0  0  0  0  0  0  0  0  0  0
    6.5198    4.2593    5.5378 H   0  0  0  0  0  0  0  0  0  0  0  0
    6.9597    6.1583    7.0738 H   0  0  0  0  0  0  0  0  0  0  0  0
    6.2857    8.4654    6.3851 H   0  0  0  0  0  0  0  0  0  0  0  0
    5.2131    8.7651    4.1519 H   0  0  0  0  0  0  0  0  0  0  0  0
    5.4389    1.1331    3.0596 H   0  0  0  0  0  0  0  0  0  0  0  0
    0.5455    0.8782    0.7730 H   0  0  0  0  0  0  0  0  0  0  0  0
   -2.8314   -1.0498   -3.0358 H   0  0  0  0  0  0  0  0  0  0  0  0
   -3.6893   -1.2979    1.0742 H   0  0  0  0  0  0  0  0  0  0  0  0
   -1.6995    0.0913    1.5869 H   0  0  0  0  0  0  0  0  0  0  0  0
    1.3592    0.9721   -3.4778 H   0  0  0  0  0  0  0  0  0  0  0  0
  1  2  2  0  0  0  0
  2  3  1  0  0  0  0
  2 17  1  0  0  0  0
  3  4  1  0  0  0  0
  4  5  1  0  0  0  0
  4 29  1  0  0  0  0
  4 30  1  0  0  0  0
  5  6  2  0  0  0  0
  5 16  1  0  0  0  0
  6  7  1  0  0  0  0
  6 31  1  0  0  0  0
  7  8  2  0  0  0  0
  7 32  1  0  0  0  0
  8  9  1  0  0  0  0
  8 15  1  0  0  0  0
  9 10  2  0  0  0  0
  9 14  1  0  0  0  0
 10 11  1  0  0  0  0
 10 33  1  0  0  0  0
 11 12  2  0  0  0  0
 11 34  1  0  0  0  0
 12 13  1  0  0  0  0
 12 35  1  0  0  0  0
 13 14  2  0  0  0  0
 13 36  1  0  0  0  0
 15 16  2  0  0  0  0
 16 37  1  0  0  0  0
 17 18  2  0  0  0  0
 17 28  1  0  0  0  0
 18 19  1  0  0  0  0
 18 38  1  0  0  0  0
 19 20  2  0  0  0  0
 19 25  1  0  0  0  0
 20 21  1  0  0  0  0
 20 26  1  0  0  0  0
 21 22  1  0  0  0  0
 21 39  1  0  0  0  0
 22 23  2  0  0  0  0
 22 24  1  0  0  0  0
 24 25  2  0  0  0  0
 24 40  1  0  0  0  0
 25 41  1  0  0  0  0
 26 27  1  0  0  0  0
 26 28  2  0  0  0  0
 28 42  1  0  0  0  0
M  END
$$$$
