
 OpenBabel01122422413D

 50 53  0  0  1  0  0  0  0  0999 V2000
    5.7116    1.0023    1.2330 C   0  0  0  0  0  0  0  0  0  0  0  0
    4.5411    0.5251    0.5291 N   0  0  0  0  0  0  0  0  0  0  0  0
    4.3801   -0.8096    0.3853 N   0  0  0  0  0  0  0  0  0  0  0  0
    3.2453   -0.9570   -0.3129 C   0  0  0  0  0  0  0  0  0  0  0  0
    2.7503   -2.2956   -0.6716 C   0  0  0  0  0  0  0  0  0  0  0  0
    2.9730   -3.3763    0.1970 C   0  0  0  0  0  0  0  0  0  0  0  0
    2.4594   -4.6457   -0.0857 C   0  0  0  0  0  0  0  0  0  0  0  0
    1.7229   -4.8564   -1.2478 C   0  0  0  0  0  0  0  0  0  0  0  0
    1.5199   -3.8041   -2.1384 C   0  0  0  0  0  0  0  0  0  0  0  0
    2.0405   -2.5340   -1.8583 C   0  0  0  0  0  0  0  0  0  0  0  0
    2.6684    0.3207   -0.5539 C   0  0  0  0  0  0  0  0  0  0  0  0
    1.4651    0.5941   -1.2488 C   0  0  0  0  0  0  0  0  0  0  0  0
    0.4760    0.8561   -1.8070 N   0  0  0  0  0  0  0  0  0  0  0  0
    3.5065    1.2718    0.0166 C   0  0  0  0  0  0  0  0  0  0  0  0
    3.4415    2.7203    0.0497 C   0  0  0  0  0  0  0  0  0  0  0  0
    4.4402    3.4287    0.1497 O   0  0  0  0  0  0  0  0  0  0  0  0
    2.1822    3.2790   -0.0137 N   0  0  0  0  0  0  0  0  0  0  0  0
    1.9627    4.7330   -0.0043 C   0  0  0  0  0  0  0  0  0  0  0  0
    0.4499    5.0404   -0.0188 C   0  0  3  0  0  0  0  0  0  0  0  0
   -0.1114    4.4771    1.1792 O   0  0  0  0  0  0  0  0  0  0  0  0
   -0.0529    6.4637   -0.1757 C   0  0  0  0  0  0  0  0  0  0  0  0
   -1.4402    6.5910   -0.3747 C   0  0  0  0  0  0  0  0  0  0  0  0
   -2.0054    7.8052   -0.7390 C   0  0  0  0  0  0  0  0  0  0  0  0
   -1.2206    8.9567   -0.7685 C   0  0  0  0  0  0  0  0  0  0  0  0
   -1.7727   10.1691   -1.1778 C   0  0  0  0  0  0  0  0  0  0  0  0
   -1.2977   11.3549   -0.6521 C   0  0  0  0  0  0  0  0  0  0  0  0
   -0.0316   11.3538   -0.0868 C   0  0  0  0  0  0  0  0  0  0  0  0
    0.7201   10.1653   -0.0566 C   0  0  0  0  0  0  0  0  0  0  0  0
    0.1087    8.9183   -0.3218 C   0  0  0  0  0  0  0  0  0  0  0  0
    0.7185    7.6419   -0.1422 C   0  0  0  0  0  0  0  0  0  0  0  0
    6.3116    0.1495    1.5591 H   0  0  0  0  0  0  0  0  0  0  0  0
    5.3816    1.5724    2.1085 H   0  0  0  0  0  0  0  0  0  0  0  0
    6.2941    1.6200    0.5485 H   0  0  0  0  0  0  0  0  0  0  0  0
    3.5462   -3.2326    1.1111 H   0  0  0  0  0  0  0  0  0  0  0  0
    2.6344   -5.4669    0.6046 H   0  0  0  0  0  0  0  0  0  0  0  0
    1.3122   -5.8395   -1.4632 H   0  0  0  0  0  0  0  0  0  0  0  0
    0.9576   -3.9704   -3.0535 H   0  0  0  0  0  0  0  0  0  0  0  0
    1.8822   -1.7505   -2.5942 H   0  0  0  0  0  0  0  0  0  0  0  0
    1.3715    2.7093    0.1969 H   0  0  0  0  0  0  0  0  0  0  0  0
    2.4685    5.1639   -0.8704 H   0  0  0  0  0  0  0  0  0  0  0  0
    2.4256    5.1244    0.9075 H   0  0  0  0  0  0  0  0  0  0  0  0
    0.0201    4.4731   -0.8559 H   0  0  0  0  0  0  0  0  0  0  0  0
   -0.1137    5.1812    1.8516 H   0  0  0  0  0  0  0  0  0  0  0  0
   -2.0879    5.7206   -0.2697 H   0  0  0  0  0  0  0  0  0  0  0  0
   -3.0790    7.8646   -0.9027 H   0  0  0  0  0  0  0  0  0  0  0  0
   -2.4981   10.1906   -1.9868 H   0  0  0  0  0  0  0  0  0  0  0  0
   -1.8850   12.2648   -0.7383 H   0  0  0  0  0  0  0  0  0  0  0  0
    0.3871   12.2891    0.2699 H   0  0  0  0  0  0  0  0  0  0  0  0
    1.7574   10.2180    0.2604 H   0  0  0  0  0  0  0  0  0  0  0  0
    1.7877    7.5989    0.0491 H   0  0  0  0  0  0  0  0  0  0  0  0
  1  2  1  0  0  0  0
  1 31  1  0  0  0  0
  1 32  1  0  0  0  0
  1 33  1  0  0  0  0
  2  3  1  0  0  0  0
  2 14  1  0  0  0  0
  3  4  2  0  0  0  0
  4  5  1  0  0  0  0
  4 11  1  0  0  0  0
  5  6  2  0  0  0  0
  5 10  1  0  0  0  0
  6  7  1  0  0  0  0
  6 34  1  0  0  0  0
  7  8  2  0  0  0  0
  7 35  1  0  0  0  0
  8  9  1  0  0  0  0
  8 36  1  0  0  0  0
  9 10  2  0  0  0  0
  9 37  1  0  0  0  0
 10 38  1  0  0  0  0
 11 12  1  0  0  0  0
 11 14  2  0  0  0  0
 12 13  3  0  0  0  0
 14 15  1  0  0  0  0
 15 16  2  0  0  0  0
 15 17  1  0  0  0  0
 17 18  1  0  0  0  0
 17 39  1  0  0  0  0
 18 19  1  0  0  0  0
 18 40  1  0  0  0  0
 18 41  1  0  0  0  0
 19 20  1  0  0  0  0
 19 21  1  0  0  0  0
 19 42  1  0  0  0  0
 20 43  1  0  0  0  0
 21 22  2  0  0  0  0
 21 30  1  0  0  0  0
 22 23  1  0  0  0  0
 22 44  1  0  0  0  0
 23 24  2  0  0  0  0
 23 45  1  0  0  0  0
 24 25  1  0  0  0  0
 24 29  1  0  0  0  0
 25 26  2  0  0  0  0
 25 46  1  0  0  0  0
 26 27  1  0  0  0  0
 26 47  1  0  0  0  0
 27 28  2  0  0  0  0
 27 48  1  0  0  0  0
 28 29  1  0  0  0  0
 28 49  1  0  0  0  0
 29 30  2  0  0  0  0
 30 50  1  0  0  0  0
M  END
$$$$
