
 OpenBabel01122422353D

 51 54  0  0  0  0  0  0  0  0999 V2000
   -1.9713   -2.4833    0.9526 C   0  0  0  0  0  0  0  0  0  0  0  0
   -0.9936   -1.5201    1.5517 C   0  0  0  0  0  0  0  0  0  0  0  0
   -1.4361   -0.6280    2.5397 C   0  0  0  0  0  0  0  0  0  0  0  0
   -0.5542    0.2849    3.1090 C   0  0  0  0  0  0  0  0  0  0  0  0
    0.7390    0.3182    2.6348 C   0  0  0  0  0  0  0  0  0  0  0  0
    1.1942   -0.4949    1.6641 N   0  0  0  0  0  0  0  0  0  0  0  0
    0.3460   -1.4288    1.1645 C   0  0  0  0  0  0  0  0  0  0  0  0
    0.8558   -2.3514    0.2484 O   0  0  0  0  0  0  0  0  0  0  0  0
    2.2231   -2.5699    0.2822 C   0  0  0  0  0  0  0  0  0  0  0  0
    2.9327   -2.7116    1.4834 C   0  0  0  0  0  0  0  0  0  0  0  0
    4.3278   -2.8240    1.4805 C   0  0  0  0  0  0  0  0  0  0  0  0
    5.0228   -2.8521    0.2697 C   0  0  0  0  0  0  0  0  0  0  0  0
    6.5112   -2.9196    0.2113 C   0  0  0  0  0  0  0  0  0  0  0  0
    7.0664   -3.4676   -0.7382 O   0  0  0  0  0  0  0  0  0  0  0  0
    7.1972   -2.3032    1.2352 N   0  0  0  0  0  0  0  0  0  0  0  0
    8.6540   -2.2179    1.2185 C   0  0  0  0  0  0  0  0  0  0  0  0
    9.2667   -2.1035    2.6162 C   0  0  0  0  0  0  0  0  0  0  0  0
    8.9085   -3.2502    3.4881 C   0  0  0  0  0  0  0  0  0  0  0  0
    9.1666   -4.5911    3.3211 C   0  0  0  0  0  0  0  0  0  0  0  0
    8.5606   -5.2070    4.3901 N   0  0  0  0  0  0  0  0  0  0  0  0
    8.5177   -6.5877    4.7060 C   0  0  0  0  0  0  0  0  0  0  0  0
    9.1797   -7.5284    3.9039 C   0  0  0  0  0  0  0  0  0  0  0  0
    9.1443   -8.8825    4.2425 C   0  0  0  0  0  0  0  0  0  0  0  0
    8.4463   -9.3047    5.3723 C   0  0  0  0  0  0  0  0  0  0  0  0
    7.7788   -8.3751    6.1683 C   0  0  0  0  0  0  0  0  0  0  0  0
    7.8135   -7.0187    5.8400 C   0  0  0  0  0  0  0  0  0  0  0  0
    7.9692   -4.2664    5.1700 N   0  0  0  0  0  0  0  0  0  0  0  0
    8.1816   -3.0738    4.6302 N   0  0  0  0  0  0  0  0  0  0  0  0
    4.3063   -2.8255   -0.9364 C   0  0  0  0  0  0  0  0  0  0  0  0
    2.9092   -2.6791   -0.9288 C   0  0  0  0  0  0  0  0  0  0  0  0
   -2.8441   -2.6033    1.6064 H   0  0  0  0  0  0  0  0  0  0  0  0
   -1.5328   -3.4766    0.8246 H   0  0  0  0  0  0  0  0  0  0  0  0
   -2.3294   -2.1105   -0.0122 H   0  0  0  0  0  0  0  0  0  0  0  0
   -2.4669   -0.6506    2.8841 H   0  0  0  0  0  0  0  0  0  0  0  0
   -0.8697    0.9537    3.9010 H   0  0  0  0  0  0  0  0  0  0  0  0
    1.4755    1.0045    3.0415 H   0  0  0  0  0  0  0  0  0  0  0  0
    2.4094   -2.6808    2.4354 H   0  0  0  0  0  0  0  0  0  0  0  0
    4.8490   -2.8904    2.4342 H   0  0  0  0  0  0  0  0  0  0  0  0
    6.6943   -1.7127    1.8834 H   0  0  0  0  0  0  0  0  0  0  0  0
    8.9197   -1.3355    0.6256 H   0  0  0  0  0  0  0  0  0  0  0  0
    9.0600   -3.0937    0.6980 H   0  0  0  0  0  0  0  0  0  0  0  0
    8.9381   -1.1698    3.0872 H   0  0  0  0  0  0  0  0  0  0  0  0
   10.3590   -2.0473    2.5292 H   0  0  0  0  0  0  0  0  0  0  0  0
    9.6801   -5.1272    2.5397 H   0  0  0  0  0  0  0  0  0  0  0  0
    9.7364   -7.2448    3.0157 H   0  0  0  0  0  0  0  0  0  0  0  0
    9.6648   -9.6096    3.6235 H   0  0  0  0  0  0  0  0  0  0  0  0
    8.4229  -10.3594    5.6329 H   0  0  0  0  0  0  0  0  0  0  0  0
    7.2328   -8.7061    7.0482 H   0  0  0  0  0  0  0  0  0  0  0  0
    7.2853   -6.3128    6.4791 H   0  0  0  0  0  0  0  0  0  0  0  0
    4.8362   -2.8967   -1.8828 H   0  0  0  0  0  0  0  0  0  0  0  0
    2.3721   -2.6225   -1.8715 H   0  0  0  0  0  0  0  0  0  0  0  0
  1  2  1  0  0  0  0
  1 31  1  0  0  0  0
  1 32  1  0  0  0  0
  1 33  1  0  0  0  0
  2  3  2  0  0  0  0
  2  7  1  0  0  0  0
  3  4  1  0  0  0  0
  3 34  1  0  0  0  0
  4  5  2  0  0  0  0
  4 35  1  0  0  0  0
  5  6  1  0  0  0  0
  5 36  1  0  0  0  0
  6  7  2  0  0  0  0
  7  8  1  0  0  0  0
  8  9  1  0  0  0  0
  9 10  2  0  0  0  0
  9 30  1  0  0  0  0
 10 11  1  0  0  0  0
 10 37  1  0  0  0  0
 11 12  2  0  0  0  0
 11 38  1  0  0  0  0
 12 13  1  0  0  0  0
 12 29  1  0  0  0  0
 13 14  2  0  0  0  0
 13 15  1  0  0  0  0
 15 16  1  0  0  0  0
 15 39  1  0  0  0  0
 16 17  1  0  0  0  0
 16 40  1  0  0  0  0
 16 41  1  0  0  0  0
 17 18  1  0  0  0  0
 17 42  1  0  0  0  0
 17 43  1  0  0  0  0
 18 19  2  0  0  0  0
 18 28  1  0  0  0  0
 19 20  1  0  0  0  0
 19 44  1  0  0  0  0
 20 21  1  0  0  0  0
 20 27  1  0  0  0  0
 21 22  2  0  0  0  0
 21 26  1  0  0  0  0
 22 23  1  0  0  0  0
 22 45  1  0  0  0  0
 23 24  2  0  0  0  0
 23 46  1  0  0  0  0
 24 25  1  0  0  0  0
 24 47  1  0  0  0  0
 25 26  2  0  0  0  0
 25 48  1  0  0  0  0
 26 49  1  0  0  0  0
 27 28  2  0  0  0  0
 29 30  2  0  0  0  0
 29 50  1  0  0  0  0
 30 51  1  0  0  0  0
M  END
$$$$
