
 OpenBabel01122422413D

 48 51  0  0  0  0  0  0  0  0999 V2000
    2.1897   -1.2193    0.2171 O   0  0  0  0  0  0  0  0  0  0  0  0
    2.2984   -0.0143    0.0212 C   0  0  0  0  0  0  0  0  0  0  0  0
    3.0098    0.9306    0.9738 C   0  0  0  0  0  0  0  0  0  0  0  0
    2.1177    1.6384    1.8172 O   0  0  0  0  0  0  0  0  0  0  0  0
    2.7030    2.4660    2.7437 C   0  0  0  0  0  0  0  0  0  0  0  0
    4.0788    2.6644    2.9035 C   0  0  0  0  0  0  0  0  0  0  0  0
    4.5594    3.5197    3.8964 C   0  0  0  0  0  0  0  0  0  0  0  0
    3.6686    4.1931    4.7267 C   0  0  0  0  0  0  0  0  0  0  0  0
    2.2921    4.0487    4.5384 C   0  0  0  0  0  0  0  0  0  0  0  0
    1.3547    4.7003    5.3107 O   0  0  0  0  0  0  0  0  0  0  0  0
    1.5992    6.0264    5.6548 C   0  0  0  0  0  0  0  0  0  0  0  0
    0.9652    6.4990    6.7944 C   0  0  0  0  0  0  0  0  0  0  0  0
    1.2086    7.8127    7.1864 C   0  0  0  0  0  0  0  0  0  0  0  0
    2.0655    8.6042    6.4301 C   0  0  0  0  0  0  0  0  0  0  0  0
    2.6320    8.0540    5.2923 C   0  0  0  0  0  0  0  0  0  0  0  0
    2.4062    6.7904    4.8815 N   0  0  0  0  0  0  0  0  0  0  0  0
    1.8136    3.1574    3.5728 C   0  0  0  0  0  0  0  0  0  0  0  0
    1.9002    0.6370   -1.1075 O   0  0  0  0  0  0  0  0  0  0  0  0
    1.5771   -0.2123   -2.2204 C   0  0  0  0  0  0  0  0  0  0  0  0
    0.1526   -0.0390   -2.5784 C   0  0  0  0  0  0  0  0  0  0  0  0
   -0.8711    0.6437   -1.9554 C   0  0  0  0  0  0  0  0  0  0  0  0
   -1.9573    0.6976   -2.7712 N   0  0  0  0  0  0  0  0  0  0  0  0
   -1.6478    0.0791   -3.8996 N   0  0  0  0  0  0  0  0  0  0  0  0
   -0.4201   -0.4825   -3.7642 N   0  0  0  0  0  0  0  0  0  0  0  0
    0.0823   -1.3570   -4.7646 C   0  0  0  0  0  0  0  0  0  0  0  0
   -0.3675   -1.2162   -6.0866 C   0  0  0  0  0  0  0  0  0  0  0  0
    0.1227   -2.0573   -7.0887 C   0  0  0  0  0  0  0  0  0  0  0  0
    1.0361   -3.0617   -6.7763 C   0  0  0  0  0  0  0  0  0  0  0  0
    1.4567   -3.2327   -5.4596 C   0  0  0  0  0  0  0  0  0  0  0  0
    0.9822   -2.3850   -4.4551 C   0  0  0  0  0  0  0  0  0  0  0  0
    3.6076    1.6225    0.3663 H   0  0  0  0  0  0  0  0  0  0  0  0
    3.6943    0.3077    1.5647 H   0  0  0  0  0  0  0  0  0  0  0  0
    4.8134    2.1708    2.2766 H   0  0  0  0  0  0  0  0  0  0  0  0
    5.6284    3.6713    4.0183 H   0  0  0  0  0  0  0  0  0  0  0  0
    4.0580    4.8522    5.4975 H   0  0  0  0  0  0  0  0  0  0  0  0
    0.3085    5.8555    7.3695 H   0  0  0  0  0  0  0  0  0  0  0  0
    0.7377    8.2147    8.0791 H   0  0  0  0  0  0  0  0  0  0  0  0
    2.2869    9.6265    6.7157 H   0  0  0  0  0  0  0  0  0  0  0  0
    3.3087    8.6291    4.6656 H   0  0  0  0  0  0  0  0  0  0  0  0
    0.7429    3.0130    3.4565 H   0  0  0  0  0  0  0  0  0  0  0  0
    1.8257   -1.2546   -2.0174 H   0  0  0  0  0  0  0  0  0  0  0  0
    2.2065    0.1244   -3.0527 H   0  0  0  0  0  0  0  0  0  0  0  0
   -0.8630    1.1389   -0.9944 H   0  0  0  0  0  0  0  0  0  0  0  0
   -1.0800   -0.4386   -6.3574 H   0  0  0  0  0  0  0  0  0  0  0  0
   -0.2139   -1.9308   -8.1149 H   0  0  0  0  0  0  0  0  0  0  0  0
    1.4069   -3.7236   -7.5551 H   0  0  0  0  0  0  0  0  0  0  0  0
    2.1391   -4.0411   -5.2094 H   0  0  0  0  0  0  0  0  0  0  0  0
    1.2764   -2.6104   -3.4363 H   0  0  0  0  0  0  0  0  0  0  0  0
  1  2  2  0  0  0  0
  2  3  1  0  0  0  0
  2 18  1  0  0  0  0
  3  4  1  0  0  0  0
  3 31  1  0  0  0  0
  3 32  1  0  0  0  0
  4  5  1  0  0  0  0
  5  6  2  0  0  0  0
  5 17  1  0  0  0  0
  6  7  1  0  0  0  0
  6 33  1  0  0  0  0
  7  8  2  0  0  0  0
  7 34  1  0  0  0  0
  8  9  1  0  0  0  0
  8 35  1  0  0  0  0
  9 10  1  0  0  0  0
  9 17  2  0  0  0  0
 10 11  1  0  0  0  0
 11 12  2  0  0  0  0
 11 16  1  0  0  0  0
 12 13  1  0  0  0  0
 12 36  1  0  0  0  0
 13 14  2  0  0  0  0
 13 37  1  0  0  0  0
 14 15  1  0  0  0  0
 14 38  1  0  0  0  0
 15 16  2  0  0  0  0
 15 39  1  0  0  0  0
 17 40  1  0  0  0  0
 18 19  1  0  0  0  0
 19 20  1  0  0  0  0
 19 41  1  0  0  0  0
 19 42  1  0  0  0  0
 20 21  2  0  0  0  0
 20 24  1  0  0  0  0
 21 22  1  0  0  0  0
 21 43  1  0  0  0  0
 22 23  2  0  0  0  0
 23 24  1  0  0  0  0
 24 25  1  0  0  0  0
 25 26  2  0  0  0  0
 25 30  1  0  0  0  0
 26 27  1  0  0  0  0
 26 44  1  0  0  0  0
 27 28  2  0  0  0  0
 27 45  1  0  0  0  0
 28 29  1  0  0  0  0
 28 46  1  0  0  0  0
 29 30  2  0  0  0  0
 29 47  1  0  0  0  0
 30 48  1  0  0  0  0
M  END
$$$$
