
 OpenBabel01122422413D

 47 50  0  0  0  0  0  0  0  0999 V2000
    1.0758   -0.7520   -0.0562 O   0  0  0  0  0  0  0  0  0  0  0  0
    2.1605   -0.1901    0.0154 C   0  0  0  0  0  0  0  0  0  0  0  0
    2.7065    0.3410    1.1738 N   0  0  0  0  0  0  0  0  0  0  0  0
    2.0831    0.3655    2.4423 C   0  0  0  0  0  0  0  0  0  0  0  0
    0.9193   -0.3480    2.7339 C   0  0  0  0  0  0  0  0  0  0  0  0
    0.2947   -0.2266    3.9748 C   0  0  0  0  0  0  0  0  0  0  0  0
    0.8709    0.5468    4.9800 C   0  0  0  0  0  0  0  0  0  0  0  0
    0.3371    0.6943    6.2419 O   0  0  0  0  0  0  0  0  0  0  0  0
   -0.3882   -0.3404    6.7937 C   0  0  0  0  0  0  0  0  0  0  0  0
   -0.0682   -1.6904    6.6229 C   0  0  0  0  0  0  0  0  0  0  0  0
   -0.8851   -2.6826    7.1685 C   0  0  0  0  0  0  0  0  0  0  0  0
   -1.9982   -2.3380    7.9438 C   0  0  0  0  0  0  0  0  0  0  0  0
   -2.9007   -3.4046    8.5052 C   0  0  0  0  0  0  0  0  0  0  0  0
   -2.8612   -3.3966    9.9242 O   0  0  0  0  0  0  0  0  0  0  0  0
   -2.2665   -0.9809    8.1789 C   0  0  0  0  0  0  0  0  0  0  0  0
   -1.4679    0.0126    7.6033 C   0  0  0  0  0  0  0  0  0  0  0  0
    2.0348    1.2649    4.7026 C   0  0  0  0  0  0  0  0  0  0  0  0
    2.6434    1.1709    3.4427 C   0  0  0  0  0  0  0  0  0  0  0  0
    2.9657    0.0060   -1.1647 C   0  0  0  0  0  0  0  0  0  0  0  0
    4.3327   -0.1475   -1.3210 C   0  0  0  0  0  0  0  0  0  0  0  0
    4.5414   -0.1141   -2.7052 C   0  0  0  0  0  0  0  0  0  0  0  0
    3.4156    0.0696   -3.3833 N   0  0  0  0  0  0  0  0  0  0  0  0
    2.4545    0.2429   -2.4341 N   0  0  0  0  0  0  0  0  0  0  0  0
    1.1655    0.6918   -2.8231 C   0  0  0  0  0  0  0  0  0  0  0  0
    0.3245    1.4099   -1.9678 C   0  0  0  0  0  0  0  0  0  0  0  0
   -0.9236    1.8283   -2.4266 C   0  0  0  0  0  0  0  0  0  0  0  0
   -1.2884    1.5143   -3.7249 C   0  0  0  0  0  0  0  0  0  0  0  0
   -0.4943    0.8405   -4.5838 N   0  0  0  0  0  0  0  0  0  0  0  0
    0.7199    0.4522   -4.1183 C   0  0  0  0  0  0  0  0  0  0  0  0
    3.5669    0.8649    1.0817 H   0  0  0  0  0  0  0  0  0  0  0  0
    0.4577   -1.0217    2.0198 H   0  0  0  0  0  0  0  0  0  0  0  0
   -0.6365   -0.7633    4.1354 H   0  0  0  0  0  0  0  0  0  0  0  0
    0.7993   -1.9873    6.0396 H   0  0  0  0  0  0  0  0  0  0  0  0
   -0.6481   -3.7260    6.9716 H   0  0  0  0  0  0  0  0  0  0  0  0
   -2.5941   -4.3997    8.1658 H   0  0  0  0  0  0  0  0  0  0  0  0
   -3.9305   -3.2438    8.1729 H   0  0  0  0  0  0  0  0  0  0  0  0
   -1.9276   -3.3028   10.1797 H   0  0  0  0  0  0  0  0  0  0  0  0
   -3.1103   -0.6949    8.8050 H   0  0  0  0  0  0  0  0  0  0  0  0
   -1.6987    1.0603    7.7781 H   0  0  0  0  0  0  0  0  0  0  0  0
    2.4677    1.9051    5.4674 H   0  0  0  0  0  0  0  0  0  0  0  0
    3.5431    1.7511    3.2571 H   0  0  0  0  0  0  0  0  0  0  0  0
    5.0621   -0.3651   -0.5522 H   0  0  0  0  0  0  0  0  0  0  0  0
    5.4683   -0.2482   -3.2521 H   0  0  0  0  0  0  0  0  0  0  0  0
    0.6144    1.6840   -0.9589 H   0  0  0  0  0  0  0  0  0  0  0  0
   -1.5952    2.3881   -1.7846 H   0  0  0  0  0  0  0  0  0  0  0  0
   -2.2549    1.8109   -4.1223 H   0  0  0  0  0  0  0  0  0  0  0  0
    1.3206   -0.0976   -4.8395 H   0  0  0  0  0  0  0  0  0  0  0  0
  1  2  2  0  0  0  0
  2  3  1  0  0  0  0
  2 19  1  0  0  0  0
  3  4  1  0  0  0  0
  3 30  1  0  0  0  0
  4  5  2  0  0  0  0
  4 18  1  0  0  0  0
  5  6  1  0  0  0  0
  5 31  1  0  0  0  0
  6  7  2  0  0  0  0
  6 32  1  0  0  0  0
  7  8  1  0  0  0  0
  7 17  1  0  0  0  0
  8  9  1  0  0  0  0
  9 10  2  0  0  0  0
  9 16  1  0  0  0  0
 10 11  1  0  0  0  0
 10 33  1  0  0  0  0
 11 12  2  0  0  0  0
 11 34  1  0  0  0  0
 12 13  1  0  0  0  0
 12 15  1  0  0  0  0
 13 14  1  0  0  0  0
 13 35  1  0  0  0  0
 13 36  1  0  0  0  0
 14 37  1  0  0  0  0
 15 16  2  0  0  0  0
 15 38  1  0  0  0  0
 16 39  1  0  0  0  0
 17 18  2  0  0  0  0
 17 40  1  0  0  0  0
 18 41  1  0  0  0  0
 19 20  2  0  0  0  0
 19 23  1  0  0  0  0
 20 21  1  0  0  0  0
 20 42  1  0  0  0  0
 21 22  2  0  0  0  0
 21 43  1  0  0  0  0
 22 23  1  0  0  0  0
 23 24  1  0  0  0  0
 24 25  2  0  0  0  0
 24 29  1  0  0  0  0
 25 26  1  0  0  0  0
 25 44  1  0  0  0  0
 26 27  2  0  0  0  0
 26 45  1  0  0  0  0
 27 28  1  0  0  0  0
 27 46  1  0  0  0  0
 28 29  2  0  0  0  0
 29 47  1  0  0  0  0
M  END
$$$$
