
 OpenBabel01122422413D

 45 48  0  0  0  0  0  0  0  0999 V2000
    2.0337   -2.0853    0.0751 C   0  0  0  0  0  0  0  0  0  0  0  0
    2.8895   -0.8746    0.1665 C   0  0  0  0  0  0  0  0  0  0  0  0
    4.2497   -0.7283   -0.0343 C   0  0  0  0  0  0  0  0  0  0  0  0
    4.5102    0.6705    0.0437 C   0  0  0  0  0  0  0  0  0  0  0  0
    5.8170    1.3650   -0.0237 C   0  0  0  0  0  0  0  0  0  0  0  0
    6.8585    0.7221   -0.1473 O   0  0  0  0  0  0  0  0  0  0  0  0
    5.7683    2.7529    0.1364 N   0  0  0  0  0  0  0  0  0  0  0  0
    6.9114    3.5915    0.1249 C   0  0  0  0  0  0  0  0  0  0  0  0
    8.1352    3.1880   -0.3971 C   0  0  0  0  0  0  0  0  0  0  0  0
    9.2380    4.0351   -0.3315 C   0  0  0  0  0  0  0  0  0  0  0  0
    9.1057    5.2871    0.2610 C   0  0  0  0  0  0  0  0  0  0  0  0
   10.2511    6.2066    0.3701 C   0  0  0  0  0  0  0  0  0  0  0  0
   10.0682    7.5948    0.3710 C   0  0  0  0  0  0  0  0  0  0  0  0
   11.1789    8.4218    0.4165 C   0  0  0  0  0  0  0  0  0  0  0  0
   12.4484    7.9701    0.4642 N   0  0  0  0  0  0  0  0  0  0  0  0
   12.6142    6.6328    0.4791 C   0  0  0  0  0  0  0  0  0  0  0  0
   11.5662    5.7279    0.4411 C   0  0  0  0  0  0  0  0  0  0  0  0
    7.9178    5.7208    0.7488 N   0  0  0  0  0  0  0  0  0  0  0  0
    6.8562    4.8737    0.6623 C   0  0  0  0  0  0  0  0  0  0  0  0
    3.3544    1.3524    0.1853 N   0  0  0  0  0  0  0  0  0  0  0  0
    2.4040    0.4033    0.3774 N   0  0  0  0  0  0  0  0  0  0  0  0
    1.0762    0.7847    0.7077 C   0  0  0  0  0  0  0  0  0  0  0  0
    0.2735   -0.0423    1.5018 C   0  0  0  0  0  0  0  0  0  0  0  0
   -1.0488    0.3062    1.7678 C   0  0  0  0  0  0  0  0  0  0  0  0
   -1.5762    1.4780    1.2297 C   0  0  0  0  0  0  0  0  0  0  0  0
   -0.7741    2.3259    0.4530 C   0  0  0  0  0  0  0  0  0  0  0  0
   -1.3358    3.5074   -0.1173 C   0  0  0  0  0  0  0  0  0  0  0  0
   -1.8125    4.4667   -0.5930 N   0  0  0  0  0  0  0  0  0  0  0  0
    0.5660    1.9927    0.2152 C   0  0  0  0  0  0  0  0  0  0  0  0
    2.6143   -2.9547   -0.2392 H   0  0  0  0  0  0  0  0  0  0  0  0
    1.2325   -1.9348   -0.6574 H   0  0  0  0  0  0  0  0  0  0  0  0
    1.5856   -2.3429    1.0366 H   0  0  0  0  0  0  0  0  0  0  0  0
    4.9502   -1.5330   -0.2206 H   0  0  0  0  0  0  0  0  0  0  0  0
    4.8899    3.1404    0.4579 H   0  0  0  0  0  0  0  0  0  0  0  0
    8.2658    2.2227   -0.8716 H   0  0  0  0  0  0  0  0  0  0  0  0
   10.1861    3.7059   -0.7402 H   0  0  0  0  0  0  0  0  0  0  0  0
    9.0743    8.0266    0.3254 H   0  0  0  0  0  0  0  0  0  0  0  0
   11.0691    9.5022    0.4128 H   0  0  0  0  0  0  0  0  0  0  0  0
   13.6450    6.2946    0.5139 H   0  0  0  0  0  0  0  0  0  0  0  0
   11.7797    4.6633    0.4553 H   0  0  0  0  0  0  0  0  0  0  0  0
    5.9391    5.2746    1.0836 H   0  0  0  0  0  0  0  0  0  0  0  0
    0.6688   -0.9379    1.9664 H   0  0  0  0  0  0  0  0  0  0  0  0
   -1.6644   -0.3337    2.3962 H   0  0  0  0  0  0  0  0  0  0  0  0
   -2.6182    1.7293    1.4229 H   0  0  0  0  0  0  0  0  0  0  0  0
    1.1877    2.6412   -0.4005 H   0  0  0  0  0  0  0  0  0  0  0  0
  1  2  1  0  0  0  0
  1 30  1  0  0  0  0
  1 31  1  0  0  0  0
  1 32  1  0  0  0  0
  2  3  2  0  0  0  0
  2 21  1  0  0  0  0
  3  4  1  0  0  0  0
  3 33  1  0  0  0  0
  4  5  1  0  0  0  0
  4 20  2  0  0  0  0
  5  6  2  0  0  0  0
  5  7  1  0  0  0  0
  7  8  1  0  0  0  0
  7 34  1  0  0  0  0
  8  9  2  0  0  0  0
  8 19  1  0  0  0  0
  9 10  1  0  0  0  0
  9 35  1  0  0  0  0
 10 11  2  0  0  0  0
 10 36  1  0  0  0  0
 11 12  1  0  0  0  0
 11 18  1  0  0  0  0
 12 13  2  0  0  0  0
 12 17  1  0  0  0  0
 13 14  1  0  0  0  0
 13 37  1  0  0  0  0
 14 15  2  0  0  0  0
 14 38  1  0  0  0  0
 15 16  1  0  0  0  0
 16 17  2  0  0  0  0
 16 39  1  0  0  0  0
 17 40  1  0  0  0  0
 18 19  2  0  0  0  0
 19 41  1  0  0  0  0
 20 21  1  0  0  0  0
 21 22  1  0  0  0  0
 22 23  2  0  0  0  0
 22 29  1  0  0  0  0
 23 24  1  0  0  0  0
 23 42  1  0  0  0  0
 24 25  2  0  0  0  0
 24 43  1  0  0  0  0
 25 26  1  0  0  0  0
 25 44  1  0  0  0  0
 26 27  1  0  0  0  0
 26 29  2  0  0  0  0
 27 28  3  0  0  0  0
 29 45  1  0  0  0  0
M  END
$$$$
