
 OpenBabel01122422413D

 48 51  0  0  0  0  0  0  0  0999 V2000
    0.9809   -0.6134    0.6878 O   0  0  0  0  0  0  0  0  0  0  0  0
    2.0874   -0.2332    0.3168 C   0  0  0  0  0  0  0  0  0  0  0  0
    2.7255    0.9275    0.7101 N   0  0  0  0  0  0  0  0  0  0  0  0
    2.2633    1.8386    1.7019 C   0  0  0  0  0  0  0  0  0  0  0  0
    1.2142    1.5027    2.5707 C   0  0  0  0  0  0  0  0  0  0  0  0
    0.7475    2.3909    3.5418 C   0  0  0  0  0  0  0  0  0  0  0  0
    1.3448    3.6319    3.6896 C   0  0  0  0  0  0  0  0  0  0  0  0
    2.3950    3.9894    2.8489 C   0  0  0  0  0  0  0  0  0  0  0  0
    2.8534    3.1153    1.8366 C   0  0  0  0  0  0  0  0  0  0  0  0
    3.8967    3.6514    0.8825 C   0  0  0  0  0  0  0  0  0  0  0  0
    3.4581    3.6207   -0.4778 O   0  0  0  0  0  0  0  0  0  0  0  0
    2.3386    4.4801   -0.7120 C   0  0  0  0  0  0  0  0  0  0  0  0
    2.0086    4.4809   -2.1812 C   0  0  0  0  0  0  0  0  0  0  0  0
    0.8001    3.9380   -2.6410 C   0  0  0  0  0  0  0  0  0  0  0  0
    0.4858    3.9606   -4.0007 C   0  0  0  0  0  0  0  0  0  0  0  0
    1.3759    4.5238   -4.9129 C   0  0  0  0  0  0  0  0  0  0  0  0
    2.5824    5.0616   -4.4677 C   0  0  0  0  0  0  0  0  0  0  0  0
    2.8985    5.0393   -3.1083 C   0  0  0  0  0  0  0  0  0  0  0  0
    2.8654   -1.0575   -0.6952 C   0  0  0  0  0  0  0  0  0  0  0  0
    2.1872   -2.0927   -1.1996 C   0  0  0  0  0  0  0  0  0  0  0  0
    2.8484   -2.9644   -2.1713 C   0  0  0  0  0  0  0  0  0  0  0  0
    2.2192   -3.9089   -2.6454 O   0  0  0  0  0  0  0  0  0  0  0  0
    4.1594   -2.6362   -2.4709 N   0  0  0  0  0  0  0  0  0  0  0  0
    4.8512   -3.4180   -3.3902 C   0  0  0  0  0  0  0  0  0  0  0  0
    6.1228   -3.1636   -3.7183 C   0  0  0  0  0  0  0  0  0  0  0  0
    6.8104   -2.0605   -3.1024 C   0  0  0  0  0  0  0  0  0  0  0  0
    6.1833   -1.2746   -2.2174 C   0  0  0  0  0  0  0  0  0  0  0  0
    4.7592   -1.5370   -1.8573 C   0  0  0  0  0  0  0  0  0  0  0  0
    4.1676   -0.7486   -1.0066 N   0  0  0  0  0  0  0  0  0  0  0  0
    3.5540    1.1776    0.1788 H   0  0  0  0  0  0  0  0  0  0  0  0
    0.7246    0.5357    2.5265 H   0  0  0  0  0  0  0  0  0  0  0  0
   -0.0836    2.0990    4.1784 H   0  0  0  0  0  0  0  0  0  0  0  0
    0.9855    4.3219    4.4479 H   0  0  0  0  0  0  0  0  0  0  0  0
    2.8380    4.9764    2.9688 H   0  0  0  0  0  0  0  0  0  0  0  0
    4.8060    3.0460    0.9627 H   0  0  0  0  0  0  0  0  0  0  0  0
    4.1875    4.6796    1.1355 H   0  0  0  0  0  0  0  0  0  0  0  0
    2.5644    5.5046   -0.3908 H   0  0  0  0  0  0  0  0  0  0  0  0
    1.4695    4.1303   -0.1441 H   0  0  0  0  0  0  0  0  0  0  0  0
    0.0951    3.4930   -1.9417 H   0  0  0  0  0  0  0  0  0  0  0  0
   -0.4537    3.5375   -4.3467 H   0  0  0  0  0  0  0  0  0  0  0  0
    1.1307    4.5402   -5.9713 H   0  0  0  0  0  0  0  0  0  0  0  0
    3.2784    5.4974   -5.1789 H   0  0  0  0  0  0  0  0  0  0  0  0
    3.8443    5.4561   -2.7703 H   0  0  0  0  0  0  0  0  0  0  0  0
    1.1668   -2.3417   -0.9371 H   0  0  0  0  0  0  0  0  0  0  0  0
    4.3109   -4.2501   -3.8372 H   0  0  0  0  0  0  0  0  0  0  0  0
    6.6504   -3.7793   -4.4400 H   0  0  0  0  0  0  0  0  0  0  0  0
    7.8471   -1.8869   -3.3716 H   0  0  0  0  0  0  0  0  0  0  0  0
    6.6733   -0.4401   -1.7329 H   0  0  0  0  0  0  0  0  0  0  0  0
  1  2  2  0  0  0  0
  2  3  1  0  0  0  0
  2 19  1  0  0  0  0
  3  4  1  0  0  0  0
  3 30  1  0  0  0  0
  4  5  2  0  0  0  0
  4  9  1  0  0  0  0
  5  6  1  0  0  0  0
  5 31  1  0  0  0  0
  6  7  2  0  0  0  0
  6 32  1  0  0  0  0
  7  8  1  0  0  0  0
  7 33  1  0  0  0  0
  8  9  2  0  0  0  0
  8 34  1  0  0  0  0
  9 10  1  0  0  0  0
 10 11  1  0  0  0  0
 10 35  1  0  0  0  0
 10 36  1  0  0  0  0
 11 12  1  0  0  0  0
 12 13  1  0  0  0  0
 12 37  1  0  0  0  0
 12 38  1  0  0  0  0
 13 14  2  0  0  0  0
 13 18  1  0  0  0  0
 14 15  1  0  0  0  0
 14 39  1  0  0  0  0
 15 16  2  0  0  0  0
 15 40  1  0  0  0  0
 16 17  1  0  0  0  0
 16 41  1  0  0  0  0
 17 18  2  0  0  0  0
 17 42  1  0  0  0  0
 18 43  1  0  0  0  0
 19 20  2  0  0  0  0
 19 29  1  0  0  0  0
 20 21  1  0  0  0  0
 20 44  1  0  0  0  0
 21 22  2  0  0  0  0
 21 23  1  0  0  0  0
 23 24  1  0  0  0  0
 23 28  1  0  0  0  0
 24 25  2  0  0  0  0
 24 45  1  0  0  0  0
 25 26  1  0  0  0  0
 25 46  1  0  0  0  0
 26 27  2  0  0  0  0
 26 47  1  0  0  0  0
 27 28  1  0  0  0  0
 27 48  1  0  0  0  0
 28 29  2  0  0  0  0
M  END
$$$$
