
 OpenBabel01122422413D

 42 45  0  0  0  0  0  0  0  0999 V2000
    5.6787   -1.2286    0.0335 C   0  0  0  0  0  0  0  0  0  0  0  0
    4.4087   -0.4741   -0.0816 C   0  0  0  0  0  0  0  0  0  0  0  0
    4.3090    0.8971   -0.1704 C   0  0  0  0  0  0  0  0  0  0  0  0
    2.9747    1.2127   -0.2118 N   0  0  0  0  0  0  0  0  0  0  0  0
    2.3947    2.5104   -0.2647 C   0  0  0  0  0  0  0  0  0  0  0  0
    3.2035    3.6498   -0.4047 C   0  0  0  0  0  0  0  0  0  0  0  0
    2.6276    4.9195   -0.4139 C   0  0  0  0  0  0  0  0  0  0  0  0
    1.2508    5.0538   -0.2857 C   0  0  0  0  0  0  0  0  0  0  0  0
    0.7073    6.2782   -0.2782 F   0  0  0  0  0  0  0  0  0  0  0  0
    0.4331    3.9366   -0.1634 C   0  0  0  0  0  0  0  0  0  0  0  0
    1.0016    2.6591   -0.1594 C   0  0  0  0  0  0  0  0  0  0  0  0
    2.2143    0.1006   -0.1712 N   0  0  0  0  0  0  0  0  0  0  0  0
    3.0597   -0.9284   -0.1150 C   0  0  0  0  0  0  0  0  0  0  0  0
    2.6576   -2.2517   -0.1092 N   0  0  0  0  0  0  0  0  0  0  0  0
    1.3388   -2.6696   -0.1136 C   0  0  0  0  0  0  0  0  0  0  0  0
    0.3363   -1.9692   -0.0150 O   0  0  0  0  0  0  0  0  0  0  0  0
    1.1955   -4.1175   -0.2505 C   0  0  0  0  0  0  0  0  0  0  0  0
    0.0195   -4.8392   -0.2681 C   0  0  0  0  0  0  0  0  0  0  0  0
    0.3865   -6.1483   -0.4810 N   0  0  0  0  0  0  0  0  0  0  0  0
   -0.4244   -7.3012   -0.6316 C   0  0  0  0  0  0  0  0  0  0  0  0
   -1.8188   -7.2340   -0.5612 C   0  0  0  0  0  0  0  0  0  0  0  0
   -2.4647   -6.0830   -0.3440 F   0  0  0  0  0  0  0  0  0  0  0  0
   -2.6094   -8.3783   -0.7159 C   0  0  0  0  0  0  0  0  0  0  0  0
   -2.0159   -9.6174   -0.9466 C   0  0  0  0  0  0  0  0  0  0  0  0
   -0.6292   -9.7008   -1.0221 C   0  0  0  0  0  0  0  0  0  0  0  0
    0.1559   -8.5542   -0.8661 C   0  0  0  0  0  0  0  0  0  0  0  0
    1.4824   -8.7184   -0.9575 F   0  0  0  0  0  0  0  0  0  0  0  0
    1.7454   -6.2049   -0.5411 N   0  0  0  0  0  0  0  0  0  0  0  0
    2.2421   -4.9817   -0.4097 N   0  0  0  0  0  0  0  0  0  0  0  0
    6.5326   -0.5396    0.0623 H   0  0  0  0  0  0  0  0  0  0  0  0
    5.8198   -1.8959   -0.8205 H   0  0  0  0  0  0  0  0  0  0  0  0
    5.7013   -1.8139    0.9574 H   0  0  0  0  0  0  0  0  0  0  0  0
    5.0808    1.6511   -0.1780 H   0  0  0  0  0  0  0  0  0  0  0  0
    4.2808    3.5863   -0.5164 H   0  0  0  0  0  0  0  0  0  0  0  0
    3.2455    5.8079   -0.5182 H   0  0  0  0  0  0  0  0  0  0  0  0
   -0.6402    4.0646   -0.0651 H   0  0  0  0  0  0  0  0  0  0  0  0
    0.3510    1.7909   -0.0557 H   0  0  0  0  0  0  0  0  0  0  0  0
    3.3766   -2.9626   -0.1433 H   0  0  0  0  0  0  0  0  0  0  0  0
   -1.0023   -4.5078   -0.1697 H   0  0  0  0  0  0  0  0  0  0  0  0
   -3.6920   -8.2933   -0.6557 H   0  0  0  0  0  0  0  0  0  0  0  0
   -2.6278  -10.5085   -1.0669 H   0  0  0  0  0  0  0  0  0  0  0  0
   -0.1431  -10.6564   -1.2030 H   0  0  0  0  0  0  0  0  0  0  0  0
  1  2  1  0  0  0  0
  1 30  1  0  0  0  0
  1 31  1  0  0  0  0
  1 32  1  0  0  0  0
  2  3  2  0  0  0  0
  2 13  1  0  0  0  0
  3  4  1  0  0  0  0
  3 33  1  0  0  0  0
  4  5  1  0  0  0  0
  4 12  1  0  0  0  0
  5  6  2  0  0  0  0
  5 11  1  0  0  0  0
  6  7  1  0  0  0  0
  6 34  1  0  0  0  0
  7  8  2  0  0  0  0
  7 35  1  0  0  0  0
  8  9  1  0  0  0  0
  8 10  1  0  0  0  0
 10 11  2  0  0  0  0
 10 36  1  0  0  0  0
 11 37  1  0  0  0  0
 12 13  2  0  0  0  0
 13 14  1  0  0  0  0
 14 15  1  0  0  0  0
 14 38  1  0  0  0  0
 15 16  2  0  0  0  0
 15 17  1  0  0  0  0
 17 18  2  0  0  0  0
 17 29  1  0  0  0  0
 18 19  1  0  0  0  0
 18 39  1  0  0  0  0
 19 20  1  0  0  0  0
 19 28  1  0  0  0  0
 20 21  2  0  0  0  0
 20 26  1  0  0  0  0
 21 22  1  0  0  0  0
 21 23  1  0  0  0  0
 23 24  2  0  0  0  0
 23 40  1  0  0  0  0
 24 25  1  0  0  0  0
 24 41  1  0  0  0  0
 25 26  2  0  0  0  0
 25 42  1  0  0  0  0
 26 27  1  0  0  0  0
 28 29  2  0  0  0  0
M  END
$$$$
