
 OpenBabel01122422413D

 44 46  0  0  0  0  0  0  0  0999 V2000
   -1.6614   -7.7702   -0.4073 N   0  0  0  0  0  0  0  0  0  0  0  0
   -1.3501   -6.8743    0.2672 C   0  0  0  0  0  0  0  0  0  0  0  0
   -0.9685   -5.7698    1.0937 C   0  0  0  0  0  0  0  0  0  0  0  0
   -1.9462   -4.8638    1.3298 N   0  0  0  0  0  0  0  0  0  0  0  0
   -1.6354   -3.7777    2.0803 C   0  0  0  0  0  0  0  0  0  0  0  0
   -2.7416   -2.7877    2.3572 C   0  0  0  0  0  0  0  0  0  0  0  0
   -3.7236   -2.6151    1.1938 C   0  0  0  0  0  0  0  0  0  0  0  0
   -4.4720   -3.8195    0.8711 N   0  0  0  0  0  0  0  0  0  0  0  0
   -5.7659   -3.7344    0.3899 C   0  0  0  0  0  0  0  0  0  0  0  0
   -6.3243   -2.6522    0.3137 O   0  0  0  0  0  0  0  0  0  0  0  0
   -6.4643   -5.0265    0.0841 C   0  0  0  0  0  0  0  0  0  0  0  0
   -6.0960   -6.1308    0.8886 C   0  0  0  0  0  0  0  0  0  0  0  0
   -6.7563   -7.3473    0.7774 C   0  0  0  0  0  0  0  0  0  0  0  0
   -6.3975   -8.3665    1.5687 F   0  0  0  0  0  0  0  0  0  0  0  0
   -7.8003   -7.4898   -0.1158 C   0  0  0  0  0  0  0  0  0  0  0  0
   -8.4601   -8.6515   -0.2073 F   0  0  0  0  0  0  0  0  0  0  0  0
   -8.1879   -6.4227   -0.9177 C   0  0  0  0  0  0  0  0  0  0  0  0
   -7.5151   -5.1824   -0.8582 C   0  0  0  0  0  0  0  0  0  0  0  0
   -8.0238   -4.1065   -1.7749 C   0  0  0  0  0  0  0  0  0  0  0  0
   -8.0656   -2.9341   -1.4275 O   0  0  0  0  0  0  0  0  0  0  0  0
   -8.5971   -4.3967   -3.1224 C   0  0  0  0  0  0  0  0  0  0  0  0
   -8.1769   -5.4700   -3.9146 C   0  0  0  0  0  0  0  0  0  0  0  0
   -8.7207   -5.6516   -5.1884 C   0  0  0  0  0  0  0  0  0  0  0  0
   -9.6698   -4.7561   -5.6836 C   0  0  0  0  0  0  0  0  0  0  0  0
  -10.0983   -3.6889   -4.8991 C   0  0  0  0  0  0  0  0  0  0  0  0
   -9.5686   -3.5122   -3.6221 C   0  0  0  0  0  0  0  0  0  0  0  0
   -0.3707   -3.6028    2.6390 C   0  0  0  0  0  0  0  0  0  0  0  0
    0.6151   -4.5560    2.3889 C   0  0  0  0  0  0  0  0  0  0  0  0
    0.3161   -5.6601    1.5986 C   0  0  0  0  0  0  0  0  0  0  0  0
   -2.3003   -1.8043    2.5640 H   0  0  0  0  0  0  0  0  0  0  0  0
   -3.2738   -3.1050    3.2623 H   0  0  0  0  0  0  0  0  0  0  0  0
   -3.1999   -2.3173    0.2796 H   0  0  0  0  0  0  0  0  0  0  0  0
   -4.4267   -1.8164    1.4526 H   0  0  0  0  0  0  0  0  0  0  0  0
   -3.9159   -4.6620    0.7492 H   0  0  0  0  0  0  0  0  0  0  0  0
   -5.3230   -6.0530    1.6487 H   0  0  0  0  0  0  0  0  0  0  0  0
   -9.0412   -6.5802   -1.5724 H   0  0  0  0  0  0  0  0  0  0  0  0
   -7.4171   -6.1664   -3.5718 H   0  0  0  0  0  0  0  0  0  0  0  0
   -8.3961   -6.4865   -5.8039 H   0  0  0  0  0  0  0  0  0  0  0  0
  -10.0650   -4.8813   -6.6886 H   0  0  0  0  0  0  0  0  0  0  0  0
  -10.8294   -2.9824   -5.2842 H   0  0  0  0  0  0  0  0  0  0  0  0
   -9.8995   -2.6667   -3.0206 H   0  0  0  0  0  0  0  0  0  0  0  0
   -0.1454   -2.7390    3.2591 H   0  0  0  0  0  0  0  0  0  0  0  0
    1.6112   -4.4386    2.8089 H   0  0  0  0  0  0  0  0  0  0  0  0
    1.0681   -6.4120    1.3852 H   0  0  0  0  0  0  0  0  0  0  0  0
  1  2  3  0  0  0  0
  2  3  1  0  0  0  0
  3  4  2  0  0  0  0
  3 29  1  0  0  0  0
  4  5  1  0  0  0  0
  5  6  1  0  0  0  0
  5 27  2  0  0  0  0
  6  7  1  0  0  0  0
  6 30  1  0  0  0  0
  6 31  1  0  0  0  0
  7  8  1  0  0  0  0
  7 32  1  0  0  0  0
  7 33  1  0  0  0  0
  8  9  1  0  0  0  0
  8 34  1  0  0  0  0
  9 10  2  0  0  0  0
  9 11  1  0  0  0  0
 11 12  2  0  0  0  0
 11 18  1  0  0  0  0
 12 13  1  0  0  0  0
 12 35  1  0  0  0  0
 13 14  1  0  0  0  0
 13 15  2  0  0  0  0
 15 16  1  0  0  0  0
 15 17  1  0  0  0  0
 17 18  2  0  0  0  0
 17 36  1  0  0  0  0
 18 19  1  0  0  0  0
 19 20  2  0  0  0  0
 19 21  1  0  0  0  0
 21 22  2  0  0  0  0
 21 26  1  0  0  0  0
 22 23  1  0  0  0  0
 22 37  1  0  0  0  0
 23 24  2  0  0  0  0
 23 38  1  0  0  0  0
 24 25  1  0  0  0  0
 24 39  1  0  0  0  0
 25 26  2  0  0  0  0
 25 40  1  0  0  0  0
 26 41  1  0  0  0  0
 27 28  1  0  0  0  0
 27 42  1  0  0  0  0
 28 29  2  0  0  0  0
 28 43  1  0  0  0  0
 29 44  1  0  0  0  0
M  END
$$$$
