
 OpenBabel01122422413D

 45 48  0  0  0  0  0  0  0  0999 V2000
    1.0582    0.3955    0.3874 O   0  0  0  0  0  0  0  0  0  0  0  0
    2.2723    0.2544    0.3041 C   0  0  0  0  0  0  0  0  0  0  0  0
    2.9705    1.0122   -0.6100 N   0  0  0  0  0  0  0  0  0  0  0  0
    4.4033    1.2490   -0.7312 C   0  0  0  0  0  0  0  0  0  0  0  0
    4.8923    2.2567    0.2847 C   0  0  0  0  0  0  0  0  0  0  0  0
    3.9965    3.0341    1.0366 C   0  0  0  0  0  0  0  0  0  0  0  0
    4.4554    3.8822    2.0337 C   0  0  0  0  0  0  0  0  0  0  0  0
    5.8172    3.9676    2.2318 C   0  0  0  0  0  0  0  0  0  0  0  0
    6.7182    3.2567    1.5224 N   0  0  0  0  0  0  0  0  0  0  0  0
    6.2491    2.4027    0.5844 C   0  0  0  0  0  0  0  0  0  0  0  0
    7.1603    1.6250   -0.0898 O   0  0  0  0  0  0  0  0  0  0  0  0
    8.4113    1.5927    0.5831 C   0  0  0  0  0  0  0  0  0  0  0  0
    8.2906    0.8145    1.6913 F   0  0  0  0  0  0  0  0  0  0  0  0
    9.2826    0.9409   -0.2346 F   0  0  0  0  0  0  0  0  0  0  0  0
    2.9517   -0.8137    1.0794 C   0  0  0  0  0  0  0  0  0  0  0  0
    2.2833   -2.0359    1.1213 C   0  0  0  0  0  0  0  0  0  0  0  0
    2.9549   -3.1606    1.5676 C   0  0  0  0  0  0  0  0  0  0  0  0
    4.2907   -3.0619    1.9807 C   0  0  0  0  0  0  0  0  0  0  0  0
    4.9550   -4.2733    2.2574 N   0  0  0  0  0  0  0  0  0  0  0  0
    4.7911   -5.4095    1.4904 C   0  0  0  0  0  0  0  0  0  0  0  0
    4.9353   -6.5048    2.1955 N   0  0  0  0  0  0  0  0  0  0  0  0
    5.2747   -6.0577    3.4433 C   0  0  0  0  0  0  0  0  0  0  0  0
    5.3909   -6.7944    4.6282 C   0  0  0  0  0  0  0  0  0  0  0  0
    5.7635   -6.1270    5.7961 C   0  0  0  0  0  0  0  0  0  0  0  0
    6.0741   -4.7656    5.7753 C   0  0  0  0  0  0  0  0  0  0  0  0
    5.9354   -4.0027    4.6090 C   0  0  0  0  0  0  0  0  0  0  0  0
    5.4779   -4.6755    3.4669 C   0  0  0  0  0  0  0  0  0  0  0  0
    4.9154   -1.8277    2.1063 C   0  0  0  0  0  0  0  0  0  0  0  0
    4.2190   -0.6979    1.6710 C   0  0  0  0  0  0  0  0  0  0  0  0
    2.3637    1.6456   -1.1163 H   0  0  0  0  0  0  0  0  0  0  0  0
    4.5801    1.6314   -1.7414 H   0  0  0  0  0  0  0  0  0  0  0  0
    4.9253    0.2915   -0.6380 H   0  0  0  0  0  0  0  0  0  0  0  0
    2.9209    2.9571    0.8898 H   0  0  0  0  0  0  0  0  0  0  0  0
    3.7616    4.4486    2.6439 H   0  0  0  0  0  0  0  0  0  0  0  0
    6.2301    4.6165    2.9958 H   0  0  0  0  0  0  0  0  0  0  0  0
    8.8452    2.5703    0.8248 H   0  0  0  0  0  0  0  0  0  0  0  0
    1.2602   -2.1285    0.7630 H   0  0  0  0  0  0  0  0  0  0  0  0
    2.4281   -4.1132    1.5903 H   0  0  0  0  0  0  0  0  0  0  0  0
    4.4970   -5.3585    0.4528 H   0  0  0  0  0  0  0  0  0  0  0  0
    5.1431   -7.8474    4.6263 H   0  0  0  0  0  0  0  0  0  0  0  0
    5.8078   -6.6809    6.7304 H   0  0  0  0  0  0  0  0  0  0  0  0
    6.3932   -4.2797    6.6954 H   0  0  0  0  0  0  0  0  0  0  0  0
    6.1331   -2.9374    4.6164 H   0  0  0  0  0  0  0  0  0  0  0  0
    5.9419   -1.7225    2.4493 H   0  0  0  0  0  0  0  0  0  0  0  0
    4.7043    0.2617    1.7744 H   0  0  0  0  0  0  0  0  0  0  0  0
  1  2  2  0  0  0  0
  2  3  1  0  0  0  0
  2 15  1  0  0  0  0
  3  4  1  0  0  0  0
  3 30  1  0  0  0  0
  4  5  1  0  0  0  0
  4 31  1  0  0  0  0
  4 32  1  0  0  0  0
  5  6  2  0  0  0  0
  5 10  1  0  0  0  0
  6  7  1  0  0  0  0
  6 33  1  0  0  0  0
  7  8  2  0  0  0  0
  7 34  1  0  0  0  0
  8  9  1  0  0  0  0
  8 35  1  0  0  0  0
  9 10  2  0  0  0  0
 10 11  1  0  0  0  0
 11 12  1  0  0  0  0
 12 13  1  0  0  0  0
 12 14  1  0  0  0  0
 12 36  1  0  0  0  0
 15 16  2  0  0  0  0
 15 29  1  0  0  0  0
 16 17  1  0  0  0  0
 16 37  1  0  0  0  0
 17 18  2  0  0  0  0
 17 38  1  0  0  0  0
 18 19  1  0  0  0  0
 18 28  1  0  0  0  0
 19 20  1  0  0  0  0
 19 27  1  0  0  0  0
 20 21  2  0  0  0  0
 20 39  1  0  0  0  0
 21 22  1  0  0  0  0
 22 23  2  0  0  0  0
 22 27  1  0  0  0  0
 23 24  1  0  0  0  0
 23 40  1  0  0  0  0
 24 25  2  0  0  0  0
 24 41  1  0  0  0  0
 25 26  1  0  0  0  0
 25 42  1  0  0  0  0
 26 27  2  0  0  0  0
 26 43  1  0  0  0  0
 28 29  2  0  0  0  0
 28 44  1  0  0  0  0
 29 45  1  0  0  0  0
M  END
$$$$
