
 OpenBabel01122422413D

 56 59  0  0  0  0  0  0  0  0999 V2000
    4.2771    6.0942    2.3020 C   0  0  0  0  0  0  0  0  0  0  0  0
    5.1706    5.0576    2.7391 N   0  0  0  0  0  0  0  0  0  0  0  0
    5.1771    4.6060    4.0387 C   0  0  0  0  0  0  0  0  0  0  0  0
    4.4497    5.0645    4.9163 O   0  0  0  0  0  0  0  0  0  0  0  0
    6.1677    3.4765    4.3151 C   0  0  0  0  0  0  0  0  0  0  0  0
    6.8574    3.0829    3.1266 O   0  0  0  0  0  0  0  0  0  0  0  0
    7.4480    1.8497    3.1863 C   0  0  0  0  0  0  0  0  0  0  0  0
    7.6190    1.2036    1.9623 C   0  0  0  0  0  0  0  0  0  0  0  0
    8.1773   -0.0735    1.9146 C   0  0  0  0  0  0  0  0  0  0  0  0
    8.5865   -0.7013    3.0918 C   0  0  0  0  0  0  0  0  0  0  0  0
    8.4511   -0.0507    4.3252 C   0  0  0  0  0  0  0  0  0  0  0  0
    8.9550   -0.6845    5.5949 C   0  0  0  0  0  0  0  0  0  0  0  0
   10.3183   -0.3052    5.8509 N   0  0  0  0  0  0  0  0  0  0  0  0
   10.9851   -0.6951    6.9867 C   0  0  0  0  0  0  0  0  0  0  0  0
   10.4640   -1.3811    7.8614 O   0  0  0  0  0  0  0  0  0  0  0  0
   12.3646   -0.2326    7.0703 C   0  0  0  0  0  0  0  0  0  0  0  0
   13.2498   -0.5305    8.0966 C   0  0  0  0  0  0  0  0  0  0  0  0
   14.4543    0.0630    7.8227 N   0  0  0  0  0  0  0  0  0  0  0  0
   15.6400   -0.0383    8.6439 C   0  0  0  0  0  0  0  0  0  0  0  0
   14.3770    0.7599    6.6388 C   0  0  0  0  0  0  0  0  0  0  0  0
   15.3075    1.5232    5.9376 C   0  0  0  0  0  0  0  0  0  0  0  0
   14.8622    2.0740    4.7376 C   0  0  0  0  0  0  0  0  0  0  0  0
   13.5575    1.8454    4.2886 C   0  0  0  0  0  0  0  0  0  0  0  0
   13.0740    2.3597    2.9874 C   0  0  0  0  0  0  0  0  0  0  0  0
   13.9311    2.4861    1.8779 C   0  0  0  0  0  0  0  0  0  0  0  0
   13.4651    2.9506    0.6448 C   0  0  0  0  0  0  0  0  0  0  0  0
   12.1246    3.2941    0.4913 C   0  0  0  0  0  0  0  0  0  0  0  0
   11.2527    3.1737    1.5686 C   0  0  0  0  0  0  0  0  0  0  0  0
   11.7233    2.7109    2.8020 C   0  0  0  0  0  0  0  0  0  0  0  0
   12.6518    1.1206    4.9860 N   0  0  0  0  0  0  0  0  0  0  0  0
   13.0850    0.5841    6.1553 C   0  0  0  0  0  0  0  0  0  0  0  0
    7.8902    1.2353    4.3595 C   0  0  0  0  0  0  0  0  0  0  0  0
    4.4434    6.2765    1.2383 H   0  0  0  0  0  0  0  0  0  0  0  0
    4.4740    7.0038    2.8754 H   0  0  0  0  0  0  0  0  0  0  0  0
    3.2452    5.7755    2.4720 H   0  0  0  0  0  0  0  0  0  0  0  0
    5.7912    4.5969    2.0808 H   0  0  0  0  0  0  0  0  0  0  0  0
    5.5817    2.6425    4.7214 H   0  0  0  0  0  0  0  0  0  0  0  0
    6.8881    3.8469    5.0527 H   0  0  0  0  0  0  0  0  0  0  0  0
    7.3043    1.6880    1.0419 H   0  0  0  0  0  0  0  0  0  0  0  0
    8.2941   -0.5791    0.9593 H   0  0  0  0  0  0  0  0  0  0  0  0
    9.0226   -1.6969    3.0407 H   0  0  0  0  0  0  0  0  0  0  0  0
    8.8943   -1.7775    5.5400 H   0  0  0  0  0  0  0  0  0  0  0  0
    8.3387   -0.3769    6.4486 H   0  0  0  0  0  0  0  0  0  0  0  0
   10.8301    0.2379    5.1572 H   0  0  0  0  0  0  0  0  0  0  0  0
   13.1025   -1.1273    8.9896 H   0  0  0  0  0  0  0  0  0  0  0  0
   15.4279   -0.6477    9.5250 H   0  0  0  0  0  0  0  0  0  0  0  0
   15.9358    0.9692    8.9493 H   0  0  0  0  0  0  0  0  0  0  0  0
   16.4297   -0.5065    8.0494 H   0  0  0  0  0  0  0  0  0  0  0  0
   16.3196    1.6793    6.2917 H   0  0  0  0  0  0  0  0  0  0  0  0
   15.5480    2.6858    4.1596 H   0  0  0  0  0  0  0  0  0  0  0  0
   14.9776    2.1985    1.9518 H   0  0  0  0  0  0  0  0  0  0  0  0
   14.1481    3.0323   -0.1961 H   0  0  0  0  0  0  0  0  0  0  0  0
   11.7600    3.6469   -0.4693 H   0  0  0  0  0  0  0  0  0  0  0  0
   10.2031    3.4316    1.4551 H   0  0  0  0  0  0  0  0  0  0  0  0
   11.0190    2.6220    3.6272 H   0  0  0  0  0  0  0  0  0  0  0  0
    7.8198    1.7422    5.3178 H   0  0  0  0  0  0  0  0  0  0  0  0
  1  2  1  0  0  0  0
  1 33  1  0  0  0  0
  1 34  1  0  0  0  0
  1 35  1  0  0  0  0
  2  3  1  0  0  0  0
  2 36  1  0  0  0  0
  3  4  2  0  0  0  0
  3  5  1  0  0  0  0
  5  6  1  0  0  0  0
  5 37  1  0  0  0  0
  5 38  1  0  0  0  0
  6  7  1  0  0  0  0
  7  8  2  0  0  0  0
  7 32  1  0  0  0  0
  8  9  1  0  0  0  0
  8 39  1  0  0  0  0
  9 10  2  0  0  0  0
  9 40  1  0  0  0  0
 10 11  1  0  0  0  0
 10 41  1  0  0  0  0
 11 12  1  0  0  0  0
 11 32  2  0  0  0  0
 12 13  1  0  0  0  0
 12 42  1  0  0  0  0
 12 43  1  0  0  0  0
 13 14  1  0  0  0  0
 13 44  1  0  0  0  0
 14 15  2  0  0  0  0
 14 16  1  0  0  0  0
 16 17  2  0  0  0  0
 16 31  1  0  0  0  0
 17 18  1  0  0  0  0
 17 45  1  0  0  0  0
 18 19  1  0  0  0  0
 18 20  1  0  0  0  0
 19 46  1  0  0  0  0
 19 47  1  0  0  0  0
 19 48  1  0  0  0  0
 20 21  2  0  0  0  0
 20 31  1  0  0  0  0
 21 22  1  0  0  0  0
 21 49  1  0  0  0  0
 22 23  2  0  0  0  0
 22 50  1  0  0  0  0
 23 24  1  0  0  0  0
 23 30  1  0  0  0  0
 24 25  2  0  0  0  0
 24 29  1  0  0  0  0
 25 26  1  0  0  0  0
 25 51  1  0  0  0  0
 26 27  2  0  0  0  0
 26 52  1  0  0  0  0
 27 28  1  0  0  0  0
 27 53  1  0  0  0  0
 28 29  2  0  0  0  0
 28 54  1  0  0  0  0
 29 55  1  0  0  0  0
 30 31  2  0  0  0  0
 32 56  1  0  0  0  0
M  END
$$$$
