
 OpenBabel01122422353D

 44 47  0  0  0  0  0  0  0  0999 V2000
    1.0043    0.1087   -0.5125 C   0  0  0  0  0  0  0  0  0  0  0  0
    2.3133   -0.1312   -0.0087 O   0  0  0  0  0  0  0  0  0  0  0  0
    3.0064   -1.1752   -0.5621 C   0  0  0  0  0  0  0  0  0  0  0  0
    2.7631   -1.6990   -1.8302 C   0  0  0  0  0  0  0  0  0  0  0  0
    3.5450   -2.7523   -2.3247 C   0  0  0  0  0  0  0  0  0  0  0  0
    4.5908   -3.3169   -1.5740 C   0  0  0  0  0  0  0  0  0  0  0  0
    5.4022   -4.4412   -2.0970 C   0  0  0  0  0  0  0  0  0  0  0  0
    6.7665   -4.5712   -1.7999 C   0  0  0  0  0  0  0  0  0  0  0  0
    7.4786   -5.6475   -2.3070 C   0  0  0  0  0  0  0  0  0  0  0  0
    6.9405   -6.5974   -3.0965 N   0  0  0  0  0  0  0  0  0  0  0  0
    5.6313   -6.4668   -3.3846 C   0  0  0  0  0  0  0  0  0  0  0  0
    4.8371   -5.4316   -2.9138 C   0  0  0  0  0  0  0  0  0  0  0  0
    4.8258   -2.7720   -0.3005 C   0  0  0  0  0  0  0  0  0  0  0  0
    4.0513   -1.7127    0.2067 C   0  0  0  0  0  0  0  0  0  0  0  0
    4.3287   -1.2309    1.5604 C   0  0  0  0  0  0  0  0  0  0  0  0
    5.1787   -0.2346    1.8149 C   0  0  0  0  0  0  0  0  0  0  0  0
    5.4344    0.2260    3.1977 C   0  0  0  0  0  0  0  0  0  0  0  0
    6.2585    1.1304    3.3302 O   0  0  0  0  0  0  0  0  0  0  0  0
    4.7372   -0.4457    4.2119 N   0  0  0  0  0  0  0  0  0  0  0  0
    4.8062   -0.0802    5.5978 C   0  0  0  0  0  0  0  0  0  0  0  0
    5.2151    1.1938    6.0143 C   0  0  0  0  0  0  0  0  0  0  0  0
    5.2353    1.5415    7.3701 C   0  0  0  0  0  0  0  0  0  0  0  0
    4.8617    0.6135    8.3369 C   0  0  0  0  0  0  0  0  0  0  0  0
    4.4611   -0.6607    7.9491 C   0  0  0  0  0  0  0  0  0  0  0  0
    4.4238   -0.9992    6.5926 C   0  0  0  0  0  0  0  0  0  0  0  0
    3.8752   -1.5020    3.9624 N   0  0  0  0  0  0  0  0  0  0  0  0
    3.6823   -1.8374    2.7316 C   0  0  0  0  0  0  0  0  0  0  0  0
    0.5640    0.9180    0.0781 H   0  0  0  0  0  0  0  0  0  0  0  0
    0.3740   -0.7785   -0.3918 H   0  0  0  0  0  0  0  0  0  0  0  0
    1.0260    0.4407   -1.5548 H   0  0  0  0  0  0  0  0  0  0  0  0
    1.9828   -1.3036   -2.4730 H   0  0  0  0  0  0  0  0  0  0  0  0
    3.3281   -3.1159   -3.3278 H   0  0  0  0  0  0  0  0  0  0  0  0
    7.2887   -3.8421   -1.1849 H   0  0  0  0  0  0  0  0  0  0  0  0
    8.5349   -5.7730   -2.0856 H   0  0  0  0  0  0  0  0  0  0  0  0
    5.2173   -7.2416   -4.0236 H   0  0  0  0  0  0  0  0  0  0  0  0
    3.7858   -5.4185   -3.1817 H   0  0  0  0  0  0  0  0  0  0  0  0
    5.6134   -3.1867    0.3272 H   0  0  0  0  0  0  0  0  0  0  0  0
    5.7194    0.2887    1.0333 H   0  0  0  0  0  0  0  0  0  0  0  0
    5.4865    1.9640    5.2987 H   0  0  0  0  0  0  0  0  0  0  0  0
    5.5353    2.5440    7.6623 H   0  0  0  0  0  0  0  0  0  0  0  0
    4.8796    0.8850    9.3887 H   0  0  0  0  0  0  0  0  0  0  0  0
    4.1749   -1.3942    8.6980 H   0  0  0  0  0  0  0  0  0  0  0  0
    4.1117   -2.0050    6.3215 H   0  0  0  0  0  0  0  0  0  0  0  0
    2.9754   -2.6567    2.5171 H   0  0  0  0  0  0  0  0  0  0  0  0
  1  2  1  0  0  0  0
  1 28  1  0  0  0  0
  1 29  1  0  0  0  0
  1 30  1  0  0  0  0
  2  3  1  0  0  0  0
  3  4  2  0  0  0  0
  3 14  1  0  0  0  0
  4  5  1  0  0  0  0
  4 31  1  0  0  0  0
  5  6  2  0  0  0  0
  5 32  1  0  0  0  0
  6  7  1  0  0  0  0
  6 13  1  0  0  0  0
  7  8  2  0  0  0  0
  7 12  1  0  0  0  0
  8  9  1  0  0  0  0
  8 33  1  0  0  0  0
  9 10  2  0  0  0  0
  9 34  1  0  0  0  0
 10 11  1  0  0  0  0
 11 12  2  0  0  0  0
 11 35  1  0  0  0  0
 12 36  1  0  0  0  0
 13 14  2  0  0  0  0
 13 37  1  0  0  0  0
 14 15  1  0  0  0  0
 15 16  2  0  0  0  0
 15 27  1  0  0  0  0
 16 17  1  0  0  0  0
 16 38  1  0  0  0  0
 17 18  2  0  0  0  0
 17 19  1  0  0  0  0
 19 20  1  0  0  0  0
 19 26  1  0  0  0  0
 20 21  2  0  0  0  0
 20 25  1  0  0  0  0
 21 22  1  0  0  0  0
 21 39  1  0  0  0  0
 22 23  2  0  0  0  0
 22 40  1  0  0  0  0
 23 24  1  0  0  0  0
 23 41  1  0  0  0  0
 24 25  2  0  0  0  0
 24 42  1  0  0  0  0
 25 43  1  0  0  0  0
 26 27  2  0  0  0  0
 27 44  1  0  0  0  0
M  END
$$$$
