
 OpenBabel01122422413D

 46 49  0  0  0  0  0  0  0  0999 V2000
    1.1707    0.8902   -2.0431 N   0  0  0  0  0  0  0  0  0  0  0  0
    1.5267    0.0282   -0.9229 C   0  0  0  0  0  0  0  0  0  0  0  0
    2.4251   -1.1052   -1.3470 C   0  0  0  0  0  0  0  0  0  0  0  0
    3.6501   -0.8595   -1.9752 C   0  0  0  0  0  0  0  0  0  0  0  0
    4.4830   -1.9171   -2.3327 C   0  0  0  0  0  0  0  0  0  0  0  0
    4.1078   -3.2325   -2.0493 C   0  0  0  0  0  0  0  0  0  0  0  0
    2.9047   -3.5203   -1.3836 C   0  0  0  0  0  0  0  0  0  0  0  0
    2.5513   -4.8953   -0.9628 C   0  0  0  0  0  0  0  0  0  0  0  0
    3.5408   -5.8040   -0.5404 C   0  0  0  0  0  0  0  0  0  0  0  0
    3.2126   -7.0638   -0.0243 C   0  0  0  0  0  0  0  0  0  0  0  0
    1.8735   -7.4441    0.0769 C   0  0  0  0  0  0  0  0  0  0  0  0
    1.4350   -8.7313    0.6799 C   0  0  0  0  0  0  0  0  0  0  0  0
    0.3292   -8.7554    1.2172 O   0  0  0  0  0  0  0  0  0  0  0  0
    2.3148   -9.7919    0.5832 N   0  0  0  0  0  0  0  0  0  0  0  0
    2.0706  -11.1076    1.0255 C   0  0  0  0  0  0  0  0  0  0  0  0
    0.8075  -11.5740    1.3961 C   0  0  0  0  0  0  0  0  0  0  0  0
    0.6256  -12.8884    1.8354 C   0  0  0  0  0  0  0  0  0  0  0  0
    1.7190  -13.7584    1.9206 C   0  0  0  0  0  0  0  0  0  0  0  0
    1.5212  -15.0751    2.3873 N   0  0  0  0  0  0  0  0  0  0  0  0
    2.4251  -16.0752    2.6394 C   0  0  0  0  0  0  0  0  0  0  0  0
    1.7887  -17.1484    3.0496 N   0  0  0  0  0  0  0  0  0  0  0  0
    0.4626  -16.8099    3.0649 N   0  0  0  0  0  0  0  0  0  0  0  0
    0.2878  -15.5556    2.6778 N   0  0  0  0  0  0  0  0  0  0  0  0
    2.9755  -13.2964    1.5347 C   0  0  0  0  0  0  0  0  0  0  0  0
    4.0569  -14.0853    1.5774 F   0  0  0  0  0  0  0  0  0  0  0  0
    3.1535  -11.9891    1.0768 C   0  0  0  0  0  0  0  0  0  0  0  0
    0.8765   -6.5647   -0.3563 C   0  0  0  0  0  0  0  0  0  0  0  0
    1.2131   -5.3166   -0.8828 C   0  0  0  0  0  0  0  0  0  0  0  0
    2.0706   -2.4322   -1.0576 C   0  0  0  0  0  0  0  0  0  0  0  0
    0.5059    1.5909   -1.7222 H   0  0  0  0  0  0  0  0  0  0  0  0
    0.6840    0.3317   -2.7429 H   0  0  0  0  0  0  0  0  0  0  0  0
    0.6041   -0.3629   -0.4775 H   0  0  0  0  0  0  0  0  0  0  0  0
    2.0341    0.6125   -0.1477 H   0  0  0  0  0  0  0  0  0  0  0  0
    3.9563    0.1631   -2.1858 H   0  0  0  0  0  0  0  0  0  0  0  0
    5.4326   -1.7172   -2.8222 H   0  0  0  0  0  0  0  0  0  0  0  0
    4.7817   -4.0326   -2.3472 H   0  0  0  0  0  0  0  0  0  0  0  0
    4.5908   -5.5178   -0.5590 H   0  0  0  0  0  0  0  0  0  0  0  0
    4.0185   -7.6924    0.3400 H   0  0  0  0  0  0  0  0  0  0  0  0
    3.2229   -9.6191    0.1777 H   0  0  0  0  0  0  0  0  0  0  0  0
   -0.0744  -10.9421    1.3351 H   0  0  0  0  0  0  0  0  0  0  0  0
   -0.3808  -13.2022    2.1122 H   0  0  0  0  0  0  0  0  0  0  0  0
    3.4933  -15.9821    2.5296 H   0  0  0  0  0  0  0  0  0  0  0  0
    4.1528  -11.6757    0.7901 H   0  0  0  0  0  0  0  0  0  0  0  0
   -0.1732   -6.8397   -0.2668 H   0  0  0  0  0  0  0  0  0  0  0  0
    0.4027   -4.6672   -1.2071 H   0  0  0  0  0  0  0  0  0  0  0  0
    1.1356   -2.6107   -0.5298 H   0  0  0  0  0  0  0  0  0  0  0  0
  1  2  1  0  0  0  0
  1 30  1  0  0  0  0
  1 31  1  0  0  0  0
  2  3  1  0  0  0  0
  2 32  1  0  0  0  0
  2 33  1  0  0  0  0
  3  4  2  0  0  0  0
  3 29  1  0  0  0  0
  4  5  1  0  0  0  0
  4 34  1  0  0  0  0
  5  6  2  0  0  0  0
  5 35  1  0  0  0  0
  6  7  1  0  0  0  0
  6 36  1  0  0  0  0
  7  8  1  0  0  0  0
  7 29  2  0  0  0  0
  8  9  2  0  0  0  0
  8 28  1  0  0  0  0
  9 10  1  0  0  0  0
  9 37  1  0  0  0  0
 10 11  2  0  0  0  0
 10 38  1  0  0  0  0
 11 12  1  0  0  0  0
 11 27  1  0  0  0  0
 12 13  2  0  0  0  0
 12 14  1  0  0  0  0
 14 15  1  0  0  0  0
 14 39  1  0  0  0  0
 15 16  2  0  0  0  0
 15 26  1  0  0  0  0
 16 17  1  0  0  0  0
 16 40  1  0  0  0  0
 17 18  2  0  0  0  0
 17 41  1  0  0  0  0
 18 19  1  0  0  0  0
 18 24  1  0  0  0  0
 19 20  1  0  0  0  0
 19 23  1  0  0  0  0
 20 21  2  0  0  0  0
 20 42  1  0  0  0  0
 21 22  1  0  0  0  0
 22 23  2  0  0  0  0
 24 25  1  0  0  0  0
 24 26  2  0  0  0  0
 26 43  1  0  0  0  0
 27 28  2  0  0  0  0
 27 44  1  0  0  0  0
 28 45  1  0  0  0  0
 29 46  1  0  0  0  0
M  END
$$$$
