
 OpenBabel01122422413D

 46 49  0  0  0  0  0  0  0  0999 V2000
   -0.3828    0.9690    2.2580 C   0  0  0  0  0  0  0  0  0  0  0  0
   -1.3052    0.3341    1.4384 C   0  0  0  0  0  0  0  0  0  0  0  0
   -1.1501   -1.0185    1.1629 C   0  0  0  0  0  0  0  0  0  0  0  0
   -0.0590   -1.6984    1.7015 C   0  0  0  0  0  0  0  0  0  0  0  0
    0.1165   -3.1785    1.4683 C   0  0  0  0  0  0  0  0  0  0  0  0
   -0.4644   -3.5825    0.2181 O   0  0  0  0  0  0  0  0  0  0  0  0
   -0.7590   -4.9165    0.1411 C   0  0  0  0  0  0  0  0  0  0  0  0
   -1.7835   -5.2804   -0.7351 C   0  0  0  0  0  0  0  0  0  0  0  0
   -2.1848   -6.6164   -0.8283 C   0  0  0  0  0  0  0  0  0  0  0  0
   -1.5578   -7.5953   -0.0479 C   0  0  0  0  0  0  0  0  0  0  0  0
   -2.0064   -9.0336   -0.0798 C   0  0  0  0  0  0  0  0  0  0  0  0
   -1.2922   -9.7392   -1.0998 O   0  0  0  0  0  0  0  0  0  0  0  0
   -1.5773  -11.0889   -1.0622 C   0  0  0  0  0  0  0  0  0  0  0  0
   -0.9764  -11.9076   -1.9993 C   0  0  0  0  0  0  0  0  0  0  0  0
   -1.2450  -13.2710   -1.9432 C   0  0  0  0  0  0  0  0  0  0  0  0
   -2.0882  -13.7630   -0.9503 C   0  0  0  0  0  0  0  0  0  0  0  0
   -2.6562  -12.8787   -0.0349 C   0  0  0  0  0  0  0  0  0  0  0  0
   -3.5339  -13.3192    1.0740 C   0  0  0  0  0  0  0  0  0  0  0  0
   -3.7653  -14.6402    1.2053 N   0  0  0  0  0  0  0  0  0  0  0  0
   -4.5501  -15.0087    2.2432 C   0  0  0  0  0  0  0  0  0  0  0  0
   -5.1035  -14.1231    3.1394 C   0  0  0  0  0  0  0  0  0  0  0  0
   -4.8107  -12.8003    2.9208 C   0  0  0  0  0  0  0  0  0  0  0  0
   -4.0355  -12.3745    1.9059 N   0  0  0  0  0  0  0  0  0  0  0  0
   -2.4048  -11.5452   -0.1062 N   0  0  0  0  0  0  0  0  0  0  0  0
   -0.4973   -7.2277    0.7876 C   0  0  0  0  0  0  0  0  0  0  0  0
   -0.0953   -5.8989    0.8744 C   0  0  0  0  0  0  0  0  0  0  0  0
    0.8409   -1.0927    2.5192 N   0  0  0  0  0  0  0  0  0  0  0  0
    0.6613    0.2215    2.7741 C   0  0  0  0  0  0  0  0  0  0  0  0
   -0.4775    2.0234    2.4927 H   0  0  0  0  0  0  0  0  0  0  0  0
   -2.1424    0.8801    1.0149 H   0  0  0  0  0  0  0  0  0  0  0  0
   -1.8690   -1.5372    0.5344 H   0  0  0  0  0  0  0  0  0  0  0  0
   -0.3686   -3.6883    2.3118 H   0  0  0  0  0  0  0  0  0  0  0  0
    1.1883   -3.4122    1.4561 H   0  0  0  0  0  0  0  0  0  0  0  0
   -2.2901   -4.5231   -1.3285 H   0  0  0  0  0  0  0  0  0  0  0  0
   -3.0004   -6.8861   -1.4961 H   0  0  0  0  0  0  0  0  0  0  0  0
   -3.0873   -9.0728   -0.2689 H   0  0  0  0  0  0  0  0  0  0  0  0
   -1.8094   -9.4634    0.9130 H   0  0  0  0  0  0  0  0  0  0  0  0
   -0.3113  -11.4972   -2.7500 H   0  0  0  0  0  0  0  0  0  0  0  0
   -0.7947  -13.9524   -2.6595 H   0  0  0  0  0  0  0  0  0  0  0  0
   -2.2963  -14.8279   -0.8841 H   0  0  0  0  0  0  0  0  0  0  0  0
   -4.7256  -16.0775    2.3379 H   0  0  0  0  0  0  0  0  0  0  0  0
   -5.7267  -14.4441    3.9600 H   0  0  0  0  0  0  0  0  0  0  0  0
   -5.1915  -12.0167    3.5676 H   0  0  0  0  0  0  0  0  0  0  0  0
    0.0124   -7.9748    1.3917 H   0  0  0  0  0  0  0  0  0  0  0  0
    0.7344   -5.6597    1.5303 H   0  0  0  0  0  0  0  0  0  0  0  0
    1.4021    0.6711    3.4284 H   0  0  0  0  0  0  0  0  0  0  0  0
  1  2  2  0  0  0  0
  1 28  1  0  0  0  0
  1 29  1  0  0  0  0
  2  3  1  0  0  0  0
  2 30  1  0  0  0  0
  3  4  2  0  0  0  0
  3 31  1  0  0  0  0
  4  5  1  0  0  0  0
  4 27  1  0  0  0  0
  5  6  1  0  0  0  0
  5 32  1  0  0  0  0
  5 33  1  0  0  0  0
  6  7  1  0  0  0  0
  7  8  2  0  0  0  0
  7 26  1  0  0  0  0
  8  9  1  0  0  0  0
  8 34  1  0  0  0  0
  9 10  2  0  0  0  0
  9 35  1  0  0  0  0
 10 11  1  0  0  0  0
 10 25  1  0  0  0  0
 11 12  1  0  0  0  0
 11 36  1  0  0  0  0
 11 37  1  0  0  0  0
 12 13  1  0  0  0  0
 13 14  2  0  0  0  0
 13 24  1  0  0  0  0
 14 15  1  0  0  0  0
 14 38  1  0  0  0  0
 15 16  2  0  0  0  0
 15 39  1  0  0  0  0
 16 17  1  0  0  0  0
 16 40  1  0  0  0  0
 17 18  1  0  0  0  0
 17 24  2  0  0  0  0
 18 19  2  0  0  0  0
 18 23  1  0  0  0  0
 19 20  1  0  0  0  0
 20 21  2  0  0  0  0
 20 41  1  0  0  0  0
 21 22  1  0  0  0  0
 21 42  1  0  0  0  0
 22 23  2  0  0  0  0
 22 43  1  0  0  0  0
 25 26  2  0  0  0  0
 25 44  1  0  0  0  0
 26 45  1  0  0  0  0
 27 28  2  0  0  0  0
 28 46  1  0  0  0  0
M  END
$$$$
