
 OpenBabel01122422413D

 55 58  0  0  1  0  0  0  0  0999 V2000
    1.3865    0.9451    0.7782 C   0  0  0  0  0  0  0  0  0  0  0  0
    2.7724    1.0251    0.4574 O   0  0  0  0  0  0  0  0  0  0  0  0
    3.0405    1.2077   -0.8679 C   0  0  0  0  0  0  0  0  0  0  0  0
    2.1844    1.8375   -1.7768 C   0  0  0  0  0  0  0  0  0  0  0  0
    2.5294    1.9274   -3.1267 C   0  0  0  0  0  0  0  0  0  0  0  0
    3.7530    1.4292   -3.5691 C   0  0  0  0  0  0  0  0  0  0  0  0
    4.6649    0.8813   -2.6584 C   0  0  0  0  0  0  0  0  0  0  0  0
    6.0492    0.4626   -3.1076 C   0  0  0  0  0  0  0  0  0  0  0  0
    6.8658    1.6218   -3.7423 C   0  0  3  0  0  0  0  0  0  0  0  0
    7.0262    2.7451   -2.8149 N   0  0  0  0  0  0  0  0  0  0  0  0
    7.0531    4.0396   -3.2843 C   0  0  0  0  0  0  0  0  0  0  0  0
    6.8787    4.3449   -4.4611 O   0  0  0  0  0  0  0  0  0  0  0  0
    7.3062    5.1296   -2.3117 C   0  0  0  0  0  0  0  0  0  0  0  0
    8.0412    6.2339   -2.7624 C   0  0  0  0  0  0  0  0  0  0  0  0
    8.1375    7.3846   -1.9825 C   0  0  0  0  0  0  0  0  0  0  0  0
    7.4838    7.4520   -0.7443 C   0  0  0  0  0  0  0  0  0  0  0  0
    7.4134    8.7757   -0.0089 C   0  0  0  0  0  0  0  0  0  0  0  0
    6.2975    9.6613   -0.4657 C   0  0  0  0  0  0  0  0  0  0  0  0
    5.9618   10.8319    0.0388 N   0  0  0  0  0  0  0  0  0  0  0  0
    4.9167   11.3365   -0.7008 N   0  0  0  0  0  0  0  0  0  0  0  0
    4.6366   10.4659   -1.6396 C   0  0  0  0  0  0  0  0  0  0  0  0
    5.4610    9.3910   -1.5209 N   0  0  0  0  0  0  0  0  0  0  0  0
    6.7973    6.3209   -0.2698 C   0  0  0  0  0  0  0  0  0  0  0  0
    6.7109    5.1583   -1.0475 C   0  0  0  0  0  0  0  0  0  0  0  0
    8.2268    1.2004   -4.2913 C   0  0  0  0  0  0  0  0  0  0  0  0
    8.7609    1.9010   -5.3906 C   0  0  0  0  0  0  0  0  0  0  0  0
   10.0146    1.5837   -5.9160 C   0  0  0  0  0  0  0  0  0  0  0  0
   10.7579    0.5508   -5.3552 C   0  0  0  0  0  0  0  0  0  0  0  0
   10.2471   -0.1555   -4.2680 C   0  0  0  0  0  0  0  0  0  0  0  0
    8.9949    0.1692   -3.7340 C   0  0  0  0  0  0  0  0  0  0  0  0
    4.2845    0.7508   -1.3121 C   0  0  0  0  0  0  0  0  0  0  0  0
    1.3016    0.5750    1.8035 H   0  0  0  0  0  0  0  0  0  0  0  0
    0.8625    0.2400    0.1250 H   0  0  0  0  0  0  0  0  0  0  0  0
    0.9202    1.9342    0.7419 H   0  0  0  0  0  0  0  0  0  0  0  0
    1.2430    2.2769   -1.4610 H   0  0  0  0  0  0  0  0  0  0  0  0
    1.8505    2.3985   -3.8329 H   0  0  0  0  0  0  0  0  0  0  0  0
    3.9991    1.5024   -4.6262 H   0  0  0  0  0  0  0  0  0  0  0  0
    5.9448   -0.3622   -3.8254 H   0  0  0  0  0  0  0  0  0  0  0  0
    6.5871    0.0550   -2.2426 H   0  0  0  0  0  0  0  0  0  0  0  0
    6.2864    1.9818   -4.6027 H   0  0  0  0  0  0  0  0  0  0  0  0
    7.3162    2.5488   -1.8682 H   0  0  0  0  0  0  0  0  0  0  0  0
    8.5041    6.2122   -3.7478 H   0  0  0  0  0  0  0  0  0  0  0  0
    8.6794    8.2451   -2.3718 H   0  0  0  0  0  0  0  0  0  0  0  0
    8.3611    9.3125   -0.1445 H   0  0  0  0  0  0  0  0  0  0  0  0
    7.3189    8.5965    1.0688 H   0  0  0  0  0  0  0  0  0  0  0  0
    3.8774   10.5612   -2.4020 H   0  0  0  0  0  0  0  0  0  0  0  0
    5.4708    8.5662   -2.1040 H   0  0  0  0  0  0  0  0  0  0  0  0
    6.2823    6.3583    0.6900 H   0  0  0  0  0  0  0  0  0  0  0  0
    6.1177    4.3202   -0.6901 H   0  0  0  0  0  0  0  0  0  0  0  0
    8.1986    2.7164   -5.8443 H   0  0  0  0  0  0  0  0  0  0  0  0
   10.4059    2.1449   -6.7597 H   0  0  0  0  0  0  0  0  0  0  0  0
   11.7323    0.2984   -5.7603 H   0  0  0  0  0  0  0  0  0  0  0  0
   10.8267   -0.9640   -3.8293 H   0  0  0  0  0  0  0  0  0  0  0  0
    8.6406   -0.4026   -2.8818 H   0  0  0  0  0  0  0  0  0  0  0  0
    4.9553    0.2882   -0.5933 H   0  0  0  0  0  0  0  0  0  0  0  0
  1  2  1  0  0  0  0
  1 32  1  0  0  0  0
  1 33  1  0  0  0  0
  1 34  1  0  0  0  0
  2  3  1  0  0  0  0
  3  4  2  0  0  0  0
  3 31  1  0  0  0  0
  4  5  1  0  0  0  0
  4 35  1  0  0  0  0
  5  6  2  0  0  0  0
  5 36  1  0  0  0  0
  6  7  1  0  0  0  0
  6 37  1  0  0  0  0
  7  8  1  0  0  0  0
  7 31  2  0  0  0  0
  8  9  1  0  0  0  0
  8 38  1  0  0  0  0
  8 39  1  0  0  0  0
  9 10  1  0  0  0  0
  9 25  1  0  0  0  0
  9 40  1  0  0  0  0
 10 11  1  0  0  0  0
 10 41  1  0  0  0  0
 11 12  2  0  0  0  0
 11 13  1  0  0  0  0
 13 14  2  0  0  0  0
 13 24  1  0  0  0  0
 14 15  1  0  0  0  0
 14 42  1  0  0  0  0
 15 16  2  0  0  0  0
 15 43  1  0  0  0  0
 16 17  1  0  0  0  0
 16 23  1  0  0  0  0
 17 18  1  0  0  0  0
 17 44  1  0  0  0  0
 17 45  1  0  0  0  0
 18 19  2  0  0  0  0
 18 22  1  0  0  0  0
 19 20  1  0  0  0  0
 20 21  2  0  0  0  0
 21 22  1  0  0  0  0
 21 46  1  0  0  0  0
 22 47  1  0  0  0  0
 23 24  2  0  0  0  0
 23 48  1  0  0  0  0
 24 49  1  0  0  0  0
 25 26  2  0  0  0  0
 25 30  1  0  0  0  0
 26 27  1  0  0  0  0
 26 50  1  0  0  0  0
 27 28  2  0  0  0  0
 27 51  1  0  0  0  0
 28 29  1  0  0  0  0
 28 52  1  0  0  0  0
 29 30  2  0  0  0  0
 29 53  1  0  0  0  0
 30 54  1  0  0  0  0
 31 55  1  0  0  0  0
M  END
$$$$
