
 OpenBabel01122422413D

 44 47  0  0  0  0  0  0  0  0999 V2000
    1.0161   -0.0046    0.2772 O   0  0  0  0  0  0  0  0  0  0  0  0
    2.2331    0.0253    0.1158 C   0  0  0  0  0  0  0  0  0  0  0  0
    2.8868    0.7007   -0.9050 N   0  0  0  0  0  0  0  0  0  0  0  0
    2.2234    1.5214   -1.7986 C   0  0  0  0  0  0  0  0  0  0  0  0
    1.0717    2.1421   -1.5411 C   0  0  0  0  0  0  0  0  0  0  0  0
    0.3607    2.9458   -2.5442 C   0  0  0  0  0  0  0  0  0  0  0  0
   -0.7113    3.4283   -2.1859 O   0  0  0  0  0  0  0  0  0  0  0  0
    0.9544    3.0196   -3.8088 N   0  0  0  0  0  0  0  0  0  0  0  0
    0.2960    3.6582   -4.9130 C   0  0  0  0  0  0  0  0  0  0  0  0
   -0.6920    4.6356   -4.7097 C   0  0  0  0  0  0  0  0  0  0  0  0
   -1.4397    5.1537   -5.7685 C   0  0  0  0  0  0  0  0  0  0  0  0
   -1.2009    4.7133   -7.0632 C   0  0  0  0  0  0  0  0  0  0  0  0
   -0.1849    3.7894   -7.3001 C   0  0  0  0  0  0  0  0  0  0  0  0
    0.5710    3.2783   -6.2357 C   0  0  0  0  0  0  0  0  0  0  0  0
    2.1732    2.4215   -4.1055 N   0  0  0  0  0  0  0  0  0  0  0  0
    2.7593    1.7659   -3.1547 C   0  0  0  0  0  0  0  0  0  0  0  0
    3.0462   -0.7841    1.0415 C   0  0  0  0  0  0  0  0  0  0  0  0
    2.4891   -2.0011    1.4687 C   0  0  0  0  0  0  0  0  0  0  0  0
    3.0828   -2.7734    2.4778 C   0  0  0  0  0  0  0  0  0  0  0  0
    2.4596   -4.0233    2.9629 C   0  0  0  0  0  0  0  0  0  0  0  0
    1.0817   -4.2548    2.9086 C   0  0  0  0  0  0  0  0  0  0  0  0
    0.5658   -5.4569    3.3877 C   0  0  0  0  0  0  0  0  0  0  0  0
    1.4322   -6.4025    3.9135 C   0  0  0  0  0  0  0  0  0  0  0  0
    2.7829   -6.1038    3.9369 C   0  0  0  0  0  0  0  0  0  0  0  0
    3.3106   -4.9450    3.4791 N   0  0  0  0  0  0  0  0  0  0  0  0
    4.2841   -2.2880    3.0214 C   0  0  0  0  0  0  0  0  0  0  0  0
    4.8387   -1.0831    2.5832 C   0  0  0  0  0  0  0  0  0  0  0  0
    5.9633   -0.6331    3.1548 F   0  0  0  0  0  0  0  0  0  0  0  0
    4.2321   -0.3176    1.5953 C   0  0  0  0  0  0  0  0  0  0  0  0
    3.8386    0.4254   -1.1190 H   0  0  0  0  0  0  0  0  0  0  0  0
    0.5535    2.0743   -0.5929 H   0  0  0  0  0  0  0  0  0  0  0  0
   -0.9023    5.0277   -3.7188 H   0  0  0  0  0  0  0  0  0  0  0  0
   -2.2155    5.8877   -5.5668 H   0  0  0  0  0  0  0  0  0  0  0  0
   -1.8059    5.0904   -7.8828 H   0  0  0  0  0  0  0  0  0  0  0  0
    0.0037    3.4452   -8.3135 H   0  0  0  0  0  0  0  0  0  0  0  0
    1.3326    2.5329   -6.4500 H   0  0  0  0  0  0  0  0  0  0  0  0
    3.7375    1.3038   -3.3697 H   0  0  0  0  0  0  0  0  0  0  0  0
    1.5576   -2.3267    1.0062 H   0  0  0  0  0  0  0  0  0  0  0  0
    0.3956   -3.5109    2.5161 H   0  0  0  0  0  0  0  0  0  0  0  0
   -0.5038   -5.6450    3.3534 H   0  0  0  0  0  0  0  0  0  0  0  0
    1.0641   -7.3462    4.2996 H   0  0  0  0  0  0  0  0  0  0  0  0
    3.5029   -6.8109    4.3387 H   0  0  0  0  0  0  0  0  0  0  0  0
    4.7874   -2.8358    3.8156 H   0  0  0  0  0  0  0  0  0  0  0  0
    4.6592    0.6420    1.3269 H   0  0  0  0  0  0  0  0  0  0  0  0
  1  2  2  0  0  0  0
  2  3  1  0  0  0  0
  2 17  1  0  0  0  0
  3  4  1  0  0  0  0
  3 30  1  0  0  0  0
  4  5  2  0  0  0  0
  4 16  1  0  0  0  0
  5  6  1  0  0  0  0
  5 31  1  0  0  0  0
  6  7  2  0  0  0  0
  6  8  1  0  0  0  0
  8  9  1  0  0  0  0
  8 15  1  0  0  0  0
  9 10  2  0  0  0  0
  9 14  1  0  0  0  0
 10 11  1  0  0  0  0
 10 32  1  0  0  0  0
 11 12  2  0  0  0  0
 11 33  1  0  0  0  0
 12 13  1  0  0  0  0
 12 34  1  0  0  0  0
 13 14  2  0  0  0  0
 13 35  1  0  0  0  0
 14 36  1  0  0  0  0
 15 16  2  0  0  0  0
 16 37  1  0  0  0  0
 17 18  2  0  0  0  0
 17 29  1  0  0  0  0
 18 19  1  0  0  0  0
 18 38  1  0  0  0  0
 19 20  1  0  0  0  0
 19 26  2  0  0  0  0
 20 21  2  0  0  0  0
 20 25  1  0  0  0  0
 21 22  1  0  0  0  0
 21 39  1  0  0  0  0
 22 23  2  0  0  0  0
 22 40  1  0  0  0  0
 23 24  1  0  0  0  0
 23 41  1  0  0  0  0
 24 25  2  0  0  0  0
 24 42  1  0  0  0  0
 26 27  1  0  0  0  0
 26 43  1  0  0  0  0
 27 28  1  0  0  0  0
 27 29  2  0  0  0  0
 29 44  1  0  0  0  0
M  END
$$$$
