
 OpenBabel01122422413D

 41 44  0  0  0  0  0  0  0  0999 V2000
    1.1236    0.5782   -0.4804 O   0  0  0  0  0  0  0  0  0  0  0  0
    2.2755    0.2314   -0.2319 C   0  0  0  0  0  0  0  0  0  0  0  0
    2.8554   -0.9669   -0.6562 N   0  0  0  0  0  0  0  0  0  0  0  0
    2.1872   -1.9532   -1.3492 C   0  0  0  0  0  0  0  0  0  0  0  0
    1.0731   -1.7281   -2.0619 C   0  0  0  0  0  0  0  0  0  0  0  0
    0.2893   -2.7377   -2.6049 N   0  0  0  0  0  0  0  0  0  0  0  0
   -0.9928   -2.4124   -3.1617 C   0  0  0  0  0  0  0  0  0  0  0  0
   -1.7926   -1.4263   -2.5540 C   0  0  0  0  0  0  0  0  0  0  0  0
   -3.0613   -1.1255   -3.0526 C   0  0  0  0  0  0  0  0  0  0  0  0
   -3.5306   -1.7846   -4.1788 C   0  0  0  0  0  0  0  0  0  0  0  0
   -2.7395   -2.7407   -4.8124 C   0  0  0  0  0  0  0  0  0  0  0  0
   -1.4794   -3.0621   -4.2996 C   0  0  0  0  0  0  0  0  0  0  0  0
    0.6582   -4.0851   -2.4569 C   0  0  0  0  0  0  0  0  0  0  0  0
    0.0103   -5.0704   -2.8036 O   0  0  0  0  0  0  0  0  0  0  0  0
    1.9561   -4.3248   -1.7560 C   0  0  0  0  0  0  0  0  0  0  0  0
    2.6726   -3.3106   -1.2512 C   0  0  0  0  0  0  0  0  0  0  0  0
    3.1464    1.0415    0.6228 C   0  0  0  0  0  0  0  0  0  0  0  0
    2.6991    2.1500    1.2344 N   0  0  0  0  0  0  0  0  0  0  0  0
    3.7995    2.6025    1.9410 O   0  0  0  0  0  0  0  0  0  0  0  0
    4.8164    1.7285    1.6921 C   0  0  0  0  0  0  0  0  0  0  0  0
    6.0962    2.0397    2.3069 C   0  0  0  0  0  0  0  0  0  0  0  0
    6.2348    3.1011    3.2144 C   0  0  0  0  0  0  0  0  0  0  0  0
    7.4762    3.3834    3.7761 C   0  0  0  0  0  0  0  0  0  0  0  0
    7.5897    4.4059    4.6319 F   0  0  0  0  0  0  0  0  0  0  0  0
    8.5959    2.6357    3.4542 C   0  0  0  0  0  0  0  0  0  0  0  0
    8.4576    1.5839    2.5614 C   0  0  0  0  0  0  0  0  0  0  0  0
    9.5271    0.8463    2.2407 F   0  0  0  0  0  0  0  0  0  0  0  0
    7.2257    1.2775    1.9894 C   0  0  0  0  0  0  0  0  0  0  0  0
    4.4701    0.7378    0.8954 N   0  0  0  0  0  0  0  0  0  0  0  0
    3.7572   -1.1860   -0.2438 H   0  0  0  0  0  0  0  0  0  0  0  0
    0.7166   -0.7213   -2.2488 H   0  0  0  0  0  0  0  0  0  0  0  0
   -1.4616   -0.9152   -1.6529 H   0  0  0  0  0  0  0  0  0  0  0  0
   -3.6779   -0.3886   -2.5441 H   0  0  0  0  0  0  0  0  0  0  0  0
   -4.5245   -1.5583   -4.5640 H   0  0  0  0  0  0  0  0  0  0  0  0
   -3.1042   -3.2470   -5.7019 H   0  0  0  0  0  0  0  0  0  0  0  0
   -0.8755   -3.8048   -4.8141 H   0  0  0  0  0  0  0  0  0  0  0  0
    2.2569   -5.3606   -1.6606 H   0  0  0  0  0  0  0  0  0  0  0  0
    3.6065   -3.5144   -0.7388 H   0  0  0  0  0  0  0  0  0  0  0  0
    5.3905    3.7253    3.4973 H   0  0  0  0  0  0  0  0  0  0  0  0
    9.5602    2.8668    3.8896 H   0  0  0  0  0  0  0  0  0  0  0  0
    7.1649    0.4460    1.2899 H   0  0  0  0  0  0  0  0  0  0  0  0
  1  2  2  0  0  0  0
  2  3  1  0  0  0  0
  2 17  1  0  0  0  0
  3  4  1  0  0  0  0
  3 30  1  0  0  0  0
  4  5  2  0  0  0  0
  4 16  1  0  0  0  0
  5  6  1  0  0  0  0
  5 31  1  0  0  0  0
  6  7  1  0  0  0  0
  6 13  1  0  0  0  0
  7  8  2  0  0  0  0
  7 12  1  0  0  0  0
  8  9  1  0  0  0  0
  8 32  1  0  0  0  0
  9 10  2  0  0  0  0
  9 33  1  0  0  0  0
 10 11  1  0  0  0  0
 10 34  1  0  0  0  0
 11 12  2  0  0  0  0
 11 35  1  0  0  0  0
 12 36  1  0  0  0  0
 13 14  2  0  0  0  0
 13 15  1  0  0  0  0
 15 16  2  0  0  0  0
 15 37  1  0  0  0  0
 16 38  1  0  0  0  0
 17 18  2  0  0  0  0
 17 29  1  0  0  0  0
 18 19  1  0  0  0  0
 19 20  1  0  0  0  0
 20 21  1  0  0  0  0
 20 29  2  0  0  0  0
 21 22  2  0  0  0  0
 21 28  1  0  0  0  0
 22 23  1  0  0  0  0
 22 39  1  0  0  0  0
 23 24  1  0  0  0  0
 23 25  2  0  0  0  0
 25 26  1  0  0  0  0
 25 40  1  0  0  0  0
 26 27  1  0  0  0  0
 26 28  2  0  0  0  0
 28 41  1  0  0  0  0
M  END
$$$$
