
 OpenBabel01122422413D

 45 47  0  0  0  0  0  0  0  0999 V2000
    2.7152   -1.6620   -2.0145 O   0  0  0  0  0  0  0  0  0  0  0  0
    2.2749   -0.6484   -1.4728 C   0  0  0  0  0  0  0  0  0  0  0  0
    0.7841   -0.4592   -1.1927 C   0  0  0  0  0  0  0  0  0  0  0  0
    0.0951    0.1295   -2.3377 N   0  0  0  0  0  0  0  0  0  0  0  0
   -0.4834   -0.6992   -3.2804 C   0  0  0  0  0  0  0  0  0  0  0  0
   -1.1470   -0.1921   -4.3239 C   0  0  0  0  0  0  0  0  0  0  0  0
   -1.2325    1.2356   -4.4871 C   0  0  0  0  0  0  0  0  0  0  0  0
   -0.6610    2.0821   -3.6084 C   0  0  0  0  0  0  0  0  0  0  0  0
   -0.6830    3.5550   -3.7912 C   0  0  0  0  0  0  0  0  0  0  0  0
   -0.0754    4.2948   -2.8352 F   0  0  0  0  0  0  0  0  0  0  0  0
   -0.0915    3.8982   -4.9708 F   0  0  0  0  0  0  0  0  0  0  0  0
   -1.9624    4.0168   -3.8752 F   0  0  0  0  0  0  0  0  0  0  0  0
    0.0478    1.5252   -2.4257 C   0  0  0  0  0  0  0  0  0  0  0  0
    0.5675    2.2433   -1.5780 O   0  0  0  0  0  0  0  0  0  0  0  0
    3.0707    0.4096   -1.0975 N   0  0  0  0  0  0  0  0  0  0  0  0
    4.5184    0.3617   -1.1822 C   0  0  0  0  0  0  0  0  0  0  0  0
    5.0642    0.8652   -2.4987 C   0  0  0  0  0  0  0  0  0  0  0  0
    5.2728   -0.0190   -3.5508 C   0  0  0  0  0  0  0  0  0  0  0  0
    5.7164    0.4841   -4.7732 C   0  0  0  0  0  0  0  0  0  0  0  0
    5.9230   -0.2817   -5.8983 O   0  0  0  0  0  0  0  0  0  0  0  0
    5.1080   -1.3659   -6.1446 C   0  0  0  0  0  0  0  0  0  0  0  0
    3.7473   -1.4167   -5.8069 C   0  0  0  0  0  0  0  0  0  0  0  0
    3.0091   -2.5760   -6.0493 C   0  0  0  0  0  0  0  0  0  0  0  0
    3.6156   -3.6540   -6.6830 C   0  0  0  0  0  0  0  0  0  0  0  0
    2.9032   -4.7649   -6.9138 F   0  0  0  0  0  0  0  0  0  0  0  0
    4.9455   -3.5773   -7.0815 C   0  0  0  0  0  0  0  0  0  0  0  0
    5.5165   -4.6080   -7.7207 F   0  0  0  0  0  0  0  0  0  0  0  0
    5.6977   -2.4368   -6.8167 C   0  0  0  0  0  0  0  0  0  0  0  0
    6.0309    1.8320   -4.8844 C   0  0  0  0  0  0  0  0  0  0  0  0
    5.8184    2.6390   -3.7816 C   0  0  0  0  0  0  0  0  0  0  0  0
    5.3237    2.1939   -2.6056 N   0  0  0  0  0  0  0  0  0  0  0  0
    0.6566    0.1751   -0.3071 H   0  0  0  0  0  0  0  0  0  0  0  0
    0.3437   -1.4327   -0.9448 H   0  0  0  0  0  0  0  0  0  0  0  0
   -0.3852   -1.7725   -3.1367 H   0  0  0  0  0  0  0  0  0  0  0  0
   -1.6130   -0.8351   -5.0630 H   0  0  0  0  0  0  0  0  0  0  0  0
   -1.7537    1.6092   -5.3661 H   0  0  0  0  0  0  0  0  0  0  0  0
    2.6347    1.3182   -0.9565 H   0  0  0  0  0  0  0  0  0  0  0  0
    4.8636   -0.6624   -0.9984 H   0  0  0  0  0  0  0  0  0  0  0  0
    4.9051    0.9863   -0.3704 H   0  0  0  0  0  0  0  0  0  0  0  0
    5.0697   -1.0765   -3.4124 H   0  0  0  0  0  0  0  0  0  0  0  0
    3.2554   -0.5733   -5.3298 H   0  0  0  0  0  0  0  0  0  0  0  0
    1.9711   -2.6432   -5.7396 H   0  0  0  0  0  0  0  0  0  0  0  0
    6.7371   -2.3970   -7.1273 H   0  0  0  0  0  0  0  0  0  0  0  0
    6.4263    2.2431   -5.8058 H   0  0  0  0  0  0  0  0  0  0  0  0
    6.0462    3.7021   -3.8164 H   0  0  0  0  0  0  0  0  0  0  0  0
  1  2  2  0  0  0  0
  2  3  1  0  0  0  0
  2 15  1  0  0  0  0
  3  4  1  0  0  0  0
  3 32  1  0  0  0  0
  3 33  1  0  0  0  0
  4  5  1  0  0  0  0
  4 13  1  0  0  0  0
  5  6  2  0  0  0  0
  5 34  1  0  0  0  0
  6  7  1  0  0  0  0
  6 35  1  0  0  0  0
  7  8  2  0  0  0  0
  7 36  1  0  0  0  0
  8  9  1  0  0  0  0
  8 13  1  0  0  0  0
  9 10  1  0  0  0  0
  9 11  1  0  0  0  0
  9 12  1  0  0  0  0
 13 14  2  0  0  0  0
 15 16  1  0  0  0  0
 15 37  1  0  0  0  0
 16 17  1  0  0  0  0
 16 38  1  0  0  0  0
 16 39  1  0  0  0  0
 17 18  2  0  0  0  0
 17 31  1  0  0  0  0
 18 19  1  0  0  0  0
 18 40  1  0  0  0  0
 19 20  1  0  0  0  0
 19 29  2  0  0  0  0
 20 21  1  0  0  0  0
 21 22  2  0  0  0  0
 21 28  1  0  0  0  0
 22 23  1  0  0  0  0
 22 41  1  0  0  0  0
 23 24  2  0  0  0  0
 23 42  1  0  0  0  0
 24 25  1  0  0  0  0
 24 26  1  0  0  0  0
 26 27  1  0  0  0  0
 26 28  2  0  0  0  0
 28 43  1  0  0  0  0
 29 30  1  0  0  0  0
 29 44  1  0  0  0  0
 30 31  2  0  0  0  0
 30 45  1  0  0  0  0
M  END
$$$$
