
 OpenBabel01122422413D

 56 58  0  0  0  0  0  0  0  0999 V2000
    0.9875    0.0794   -0.0493 C   0  0  0  0  0  0  0  0  0  0  0  0
    2.4480    0.0370   -0.1351 N   0  0  0  0  0  0  0  0  0  0  0  0
    3.1436   -1.1793   -0.6136 C   0  0  0  0  0  0  0  0  0  0  0  0
    2.2273   -2.3485   -0.9968 C   0  0  0  0  0  0  0  0  0  0  0  0
    2.9437   -3.4928   -1.4628 O   0  0  0  0  0  0  0  0  0  0  0  0
    2.1415   -4.5499   -1.8344 C   0  0  0  0  0  0  0  0  0  0  0  0
    0.7424   -4.5790   -1.7579 C   0  0  0  0  0  0  0  0  0  0  0  0
    0.0269   -5.7082   -2.1632 C   0  0  0  0  0  0  0  0  0  0  0  0
    0.7038   -6.8210   -2.6511 C   0  0  0  0  0  0  0  0  0  0  0  0
    2.1002   -6.8041   -2.7334 C   0  0  0  0  0  0  0  0  0  0  0  0
    2.7949   -7.9485   -3.2420 C   0  0  0  0  0  0  0  0  0  0  0  0
    3.3506   -8.8802   -3.6585 N   0  0  0  0  0  0  0  0  0  0  0  0
    2.8151   -5.6708   -2.3246 C   0  0  0  0  0  0  0  0  0  0  0  0
    3.0590    1.2003    0.3301 C   0  0  0  0  0  0  0  0  0  0  0  0
    2.3604    2.1211    0.7564 O   0  0  0  0  0  0  0  0  0  0  0  0
    4.4333    1.2490    0.2664 N   0  0  0  0  0  0  0  0  0  0  0  0
    5.2171    2.3327    0.7476 C   0  0  0  0  0  0  0  0  0  0  0  0
    4.7316    3.2698    1.6690 C   0  0  0  0  0  0  0  0  0  0  0  0
    5.4964    4.3720    2.0635 C   0  0  0  0  0  0  0  0  0  0  0  0
    6.7821    4.5452    1.5531 C   0  0  0  0  0  0  0  0  0  0  0  0
    7.6248    5.7065    1.9557 C   0  0  0  0  0  0  0  0  0  0  0  0
    8.8461    5.5906    1.9916 O   0  0  0  0  0  0  0  0  0  0  0  0
    6.9566    6.8751    2.2540 N   0  0  0  0  0  0  0  0  0  0  0  0
    7.6572    8.0832    2.6369 C   0  0  0  0  0  0  0  0  0  0  0  0
    7.9775    8.9446    1.4487 C   0  0  0  0  0  0  0  0  0  0  0  0
    9.1984    8.8099    0.7724 C   0  0  0  0  0  0  0  0  0  0  0  0
    9.4755    9.5898   -0.3536 C   0  0  0  0  0  0  0  0  0  0  0  0
    8.5337   10.5067   -0.8205 C   0  0  0  0  0  0  0  0  0  0  0  0
    7.3175   10.6502   -0.1551 C   0  0  0  0  0  0  0  0  0  0  0  0
    7.0501    9.8723    0.9688 C   0  0  0  0  0  0  0  0  0  0  0  0
    5.8718   10.0214    1.5918 F   0  0  0  0  0  0  0  0  0  0  0  0
    7.3067    3.5790    0.6854 C   0  0  0  0  0  0  0  0  0  0  0  0
    6.5298    2.4779    0.2854 C   0  0  0  0  0  0  0  0  0  0  0  0
    0.4871   -0.8148   -0.4137 H   0  0  0  0  0  0  0  0  0  0  0  0
    0.6273    0.9288   -0.6399 H   0  0  0  0  0  0  0  0  0  0  0  0
    0.6981    0.2297    0.9965 H   0  0  0  0  0  0  0  0  0  0  0  0
    3.8504   -1.4968    0.1624 H   0  0  0  0  0  0  0  0  0  0  0  0
    3.7525   -0.8963   -1.4807 H   0  0  0  0  0  0  0  0  0  0  0  0
    1.5629   -2.0073   -1.8009 H   0  0  0  0  0  0  0  0  0  0  0  0
    1.6505   -2.6338   -0.1081 H   0  0  0  0  0  0  0  0  0  0  0  0
    0.1648   -3.7385   -1.3861 H   0  0  0  0  0  0  0  0  0  0  0  0
   -1.0589   -5.7141   -2.0963 H   0  0  0  0  0  0  0  0  0  0  0  0
    0.1377   -7.6963   -2.9652 H   0  0  0  0  0  0  0  0  0  0  0  0
    3.9012   -5.6569   -2.3881 H   0  0  0  0  0  0  0  0  0  0  0  0
    4.8865    0.6097   -0.3670 H   0  0  0  0  0  0  0  0  0  0  0  0
    3.7476    3.1661    2.1175 H   0  0  0  0  0  0  0  0  0  0  0  0
    5.0747    5.0639    2.7872 H   0  0  0  0  0  0  0  0  0  0  0  0
    5.9817    6.9712    1.9996 H   0  0  0  0  0  0  0  0  0  0  0  0
    8.5743    7.8246    3.1797 H   0  0  0  0  0  0  0  0  0  0  0  0
    7.0158    8.6268    3.3393 H   0  0  0  0  0  0  0  0  0  0  0  0
    9.9350    8.0852    1.1174 H   0  0  0  0  0  0  0  0  0  0  0  0
   10.4251    9.4733   -0.8706 H   0  0  0  0  0  0  0  0  0  0  0  0
    8.7464   11.1035   -1.7037 H   0  0  0  0  0  0  0  0  0  0  0  0
    6.5744   11.3585   -0.5074 H   0  0  0  0  0  0  0  0  0  0  0  0
    8.3217    3.6892    0.3075 H   0  0  0  0  0  0  0  0  0  0  0  0
    6.9633    1.7606   -0.4060 H   0  0  0  0  0  0  0  0  0  0  0  0
  1  2  1  0  0  0  0
  1 34  1  0  0  0  0
  1 35  1  0  0  0  0
  1 36  1  0  0  0  0
  2  3  1  0  0  0  0
  2 14  1  0  0  0  0
  3  4  1  0  0  0  0
  3 37  1  0  0  0  0
  3 38  1  0  0  0  0
  4  5  1  0  0  0  0
  4 39  1  0  0  0  0
  4 40  1  0  0  0  0
  5  6  1  0  0  0  0
  6  7  2  0  0  0  0
  6 13  1  0  0  0  0
  7  8  1  0  0  0  0
  7 41  1  0  0  0  0
  8  9  2  0  0  0  0
  8 42  1  0  0  0  0
  9 10  1  0  0  0  0
  9 43  1  0  0  0  0
 10 11  1  0  0  0  0
 10 13  2  0  0  0  0
 11 12  3  0  0  0  0
 13 44  1  0  0  0  0
 14 15  2  0  0  0  0
 14 16  1  0  0  0  0
 16 17  1  0  0  0  0
 16 45  1  0  0  0  0
 17 18  2  0  0  0  0
 17 33  1  0  0  0  0
 18 19  1  0  0  0  0
 18 46  1  0  0  0  0
 19 20  2  0  0  0  0
 19 47  1  0  0  0  0
 20 21  1  0  0  0  0
 20 32  1  0  0  0  0
 21 22  2  0  0  0  0
 21 23  1  0  0  0  0
 23 24  1  0  0  0  0
 23 48  1  0  0  0  0
 24 25  1  0  0  0  0
 24 49  1  0  0  0  0
 24 50  1  0  0  0  0
 25 26  2  0  0  0  0
 25 30  1  0  0  0  0
 26 27  1  0  0  0  0
 26 51  1  0  0  0  0
 27 28  2  0  0  0  0
 27 52  1  0  0  0  0
 28 29  1  0  0  0  0
 28 53  1  0  0  0  0
 29 30  2  0  0  0  0
 29 54  1  0  0  0  0
 30 31  1  0  0  0  0
 32 33  2  0  0  0  0
 32 55  1  0  0  0  0
 33 56  1  0  0  0  0
M  END
$$$$
