
 OpenBabel01122422413D

 48 51  0  0  0  0  0  0  0  0999 V2000
    2.5749   -1.1012    0.5143 O   0  0  0  0  0  0  0  0  0  0  0  0
    2.1853   -0.1911   -0.2145 C   0  0  0  0  0  0  0  0  0  0  0  0
    0.7004    0.0946   -0.3191 C   0  0  0  0  0  0  0  0  0  0  0  0
    0.0250   -0.5279   -1.5186 C   0  0  0  0  0  0  0  0  0  0  0  0
   -1.1414    0.0591   -2.0259 C   0  0  0  0  0  0  0  0  0  0  0  0
   -1.8047   -0.5005   -3.1214 C   0  0  0  0  0  0  0  0  0  0  0  0
   -1.3229   -1.6697   -3.7296 C   0  0  0  0  0  0  0  0  0  0  0  0
   -1.9560   -2.2455   -4.8375 C   0  0  0  0  0  0  0  0  0  0  0  0
   -1.4233   -3.4032   -5.3829 C   0  0  0  0  0  0  0  0  0  0  0  0
   -0.3239   -4.0227   -4.9084 N   0  0  0  0  0  0  0  0  0  0  0  0
    0.2728   -3.4543   -3.8343 C   0  0  0  0  0  0  0  0  0  0  0  0
   -0.1711   -2.2867   -3.2080 C   0  0  0  0  0  0  0  0  0  0  0  0
    0.4841   -1.7209   -2.0991 C   0  0  0  0  0  0  0  0  0  0  0  0
    2.9902    0.6510   -0.9757 N   0  0  0  0  0  0  0  0  0  0  0  0
    4.3886    0.5048   -1.1314 C   0  0  0  0  0  0  0  0  0  0  0  0
    5.0321   -0.7056   -0.8678 C   0  0  0  0  0  0  0  0  0  0  0  0
    6.4201   -0.8417   -0.9380 C   0  0  0  0  0  0  0  0  0  0  0  0
    7.0700   -2.0627   -0.6338 N   0  0  0  0  0  0  0  0  0  0  0  0
    6.4468   -3.2955   -0.5979 C   0  0  0  0  0  0  0  0  0  0  0  0
    5.2978   -3.5386   -0.9688 O   0  0  0  0  0  0  0  0  0  0  0  0
    7.2782   -4.4751   -0.1726 C   0  0  0  0  0  0  0  0  0  0  0  0
    8.4288   -4.4289    0.5191 C   0  0  0  0  0  0  0  0  0  0  0  0
    9.0844   -5.6661    0.8952 C   0  0  0  0  0  0  0  0  0  0  0  0
    8.5470   -6.8553    0.5867 C   0  0  0  0  0  0  0  0  0  0  0  0
    7.2660   -6.9146   -0.1594 C   0  0  0  0  0  0  0  0  0  0  0  0
    6.7489   -7.9847   -0.4442 O   0  0  0  0  0  0  0  0  0  0  0  0
    6.7300   -5.7018   -0.4915 N   0  0  0  0  0  0  0  0  0  0  0  0
    7.1827    0.2715   -1.2922 C   0  0  0  0  0  0  0  0  0  0  0  0
    6.5490    1.4737   -1.6326 C   0  0  0  0  0  0  0  0  0  0  0  0
    5.1541    1.5878   -1.5635 C   0  0  0  0  0  0  0  0  0  0  0  0
    0.5570    1.1812   -0.3150 H   0  0  0  0  0  0  0  0  0  0  0  0
    0.2233   -0.2942    0.5899 H   0  0  0  0  0  0  0  0  0  0  0  0
   -1.5495    0.9574   -1.5667 H   0  0  0  0  0  0  0  0  0  0  0  0
   -2.7045   -0.0165   -3.4947 H   0  0  0  0  0  0  0  0  0  0  0  0
   -2.8462   -1.8056   -5.2734 H   0  0  0  0  0  0  0  0  0  0  0  0
   -1.8837   -3.8774   -6.2448 H   0  0  0  0  0  0  0  0  0  0  0  0
    1.1559   -3.9804   -3.4788 H   0  0  0  0  0  0  0  0  0  0  0  0
    1.3608   -2.2277   -1.6940 H   0  0  0  0  0  0  0  0  0  0  0  0
    2.5692    1.4891   -1.3552 H   0  0  0  0  0  0  0  0  0  0  0  0
    4.4307   -1.5618   -0.5949 H   0  0  0  0  0  0  0  0  0  0  0  0
    8.0739   -2.0262   -0.5363 H   0  0  0  0  0  0  0  0  0  0  0  0
    8.8873   -3.5035    0.8468 H   0  0  0  0  0  0  0  0  0  0  0  0
   10.0173   -5.6086    1.4466 H   0  0  0  0  0  0  0  0  0  0  0  0
    8.9925   -7.8015    0.8629 H   0  0  0  0  0  0  0  0  0  0  0  0
    5.8319   -5.6977   -0.9692 H   0  0  0  0  0  0  0  0  0  0  0  0
    8.2664    0.2143   -1.3454 H   0  0  0  0  0  0  0  0  0  0  0  0
    7.1463    2.3274   -1.9464 H   0  0  0  0  0  0  0  0  0  0  0  0
    4.6915    2.5390   -1.8120 H   0  0  0  0  0  0  0  0  0  0  0  0
  1  2  2  0  0  0  0
  2  3  1  0  0  0  0
  2 14  1  0  0  0  0
  3  4  1  0  0  0  0
  3 31  1  0  0  0  0
  3 32  1  0  0  0  0
  4  5  2  0  0  0  0
  4 13  1  0  0  0  0
  5  6  1  0  0  0  0
  5 33  1  0  0  0  0
  6  7  2  0  0  0  0
  6 34  1  0  0  0  0
  7  8  1  0  0  0  0
  7 12  1  0  0  0  0
  8  9  2  0  0  0  0
  8 35  1  0  0  0  0
  9 10  1  0  0  0  0
  9 36  1  0  0  0  0
 10 11  2  0  0  0  0
 11 12  1  0  0  0  0
 11 37  1  0  0  0  0
 12 13  2  0  0  0  0
 13 38  1  0  0  0  0
 14 15  1  0  0  0  0
 14 39  1  0  0  0  0
 15 16  2  0  0  0  0
 15 30  1  0  0  0  0
 16 17  1  0  0  0  0
 16 40  1  0  0  0  0
 17 18  1  0  0  0  0
 17 28  2  0  0  0  0
 18 19  1  0  0  0  0
 18 41  1  0  0  0  0
 19 20  2  0  0  0  0
 19 21  1  0  0  0  0
 21 22  2  0  0  0  0
 21 27  1  0  0  0  0
 22 23  1  0  0  0  0
 22 42  1  0  0  0  0
 23 24  2  0  0  0  0
 23 43  1  0  0  0  0
 24 25  1  0  0  0  0
 24 44  1  0  0  0  0
 25 26  2  0  0  0  0
 25 27  1  0  0  0  0
 27 45  1  0  0  0  0
 28 29  1  0  0  0  0
 28 46  1  0  0  0  0
 29 30  2  0  0  0  0
 29 47  1  0  0  0  0
 30 48  1  0  0  0  0
M  END
$$$$
