
 OpenBabel01122422413D

 42 45  0  0  0  0  0  0  0  0999 V2000
    1.3587   -0.2329   -0.6280 O   0  0  0  0  0  0  0  0  0  0  0  0
    2.4168   -0.0746   -0.0278 C   0  0  0  0  0  0  0  0  0  0  0  0
    2.8496   -0.8042    1.0619 N   0  0  0  0  0  0  0  0  0  0  0  0
    2.1726   -1.8660    1.6906 C   0  0  0  0  0  0  0  0  0  0  0  0
    1.0360   -2.4940    1.1861 C   0  0  0  0  0  0  0  0  0  0  0  0
    0.4352   -3.5249    1.9106 C   0  0  0  0  0  0  0  0  0  0  0  0
    1.0064   -3.9004    3.1141 C   0  0  0  0  0  0  0  0  0  0  0  0
    0.4400   -4.9792    3.7806 O   0  0  0  0  0  0  0  0  0  0  0  0
    1.3007   -5.7664    4.5165 C   0  0  0  0  0  0  0  0  0  0  0  0
    0.8303   -6.2702    5.7282 C   0  0  0  0  0  0  0  0  0  0  0  0
    1.6736   -7.0424    6.5296 C   0  0  0  0  0  0  0  0  0  0  0  0
    2.9800   -7.3134    6.1190 C   0  0  0  0  0  0  0  0  0  0  0  0
    3.4382   -6.8421    4.8905 C   0  0  0  0  0  0  0  0  0  0  0  0
    2.5897   -6.0945    4.0789 C   0  0  0  0  0  0  0  0  0  0  0  0
    2.0940   -3.2953    3.6440 N   0  0  0  0  0  0  0  0  0  0  0  0
    2.6620   -2.3184    2.9126 C   0  0  0  0  0  0  0  0  0  0  0  0
    3.3402    1.0511   -0.3918 C   0  0  0  0  0  0  0  0  0  0  0  0
    4.6613    0.7945   -0.3680 C   0  0  0  0  0  0  0  0  0  0  0  0
    5.6645    1.8421   -0.6156 C   0  0  0  0  0  0  0  0  0  0  0  0
    6.8601    1.5941   -0.5189 O   0  0  0  0  0  0  0  0  0  0  0  0
    5.1949    3.0850   -0.9201 N   0  0  0  0  0  0  0  0  0  0  0  0
    3.8375    3.3993   -1.0044 C   0  0  0  0  0  0  0  0  0  0  0  0
    3.4711    4.7173   -1.3025 C   0  0  0  0  0  0  0  0  0  0  0  0
    2.1265    5.0587   -1.3787 C   0  0  0  0  0  0  0  0  0  0  0  0
    1.1643    4.0775   -1.1769 C   0  0  0  0  0  0  0  0  0  0  0  0
   -0.1313    4.4073   -1.2503 F   0  0  0  0  0  0  0  0  0  0  0  0
    1.5210    2.7607   -0.8868 C   0  0  0  0  0  0  0  0  0  0  0  0
    2.8705    2.4023   -0.7751 C   0  0  0  0  0  0  0  0  0  0  0  0
    3.6841   -0.4842    1.5388 H   0  0  0  0  0  0  0  0  0  0  0  0
    0.6064   -2.2205    0.2281 H   0  0  0  0  0  0  0  0  0  0  0  0
   -0.4410   -4.0355    1.5279 H   0  0  0  0  0  0  0  0  0  0  0  0
   -0.1791   -6.0448    6.0582 H   0  0  0  0  0  0  0  0  0  0  0  0
    1.3171   -7.4225    7.4832 H   0  0  0  0  0  0  0  0  0  0  0  0
    3.6452   -7.8887    6.7564 H   0  0  0  0  0  0  0  0  0  0  0  0
    4.4550   -7.0417    4.5667 H   0  0  0  0  0  0  0  0  0  0  0  0
    2.9590   -5.7336    3.1219 H   0  0  0  0  0  0  0  0  0  0  0  0
    3.5553   -1.8959    3.3642 H   0  0  0  0  0  0  0  0  0  0  0  0
    5.0853   -0.1785   -0.1332 H   0  0  0  0  0  0  0  0  0  0  0  0
    5.9015    3.7946   -1.0829 H   0  0  0  0  0  0  0  0  0  0  0  0
    4.2288    5.4825   -1.4688 H   0  0  0  0  0  0  0  0  0  0  0  0
    1.8207    6.0836   -1.5783 H   0  0  0  0  0  0  0  0  0  0  0  0
    0.7169    2.0426   -0.7518 H   0  0  0  0  0  0  0  0  0  0  0  0
  1  2  2  0  0  0  0
  2  3  1  0  0  0  0
  2 17  1  0  0  0  0
  3  4  1  0  0  0  0
  3 29  1  0  0  0  0
  4  5  2  0  0  0  0
  4 16  1  0  0  0  0
  5  6  1  0  0  0  0
  5 30  1  0  0  0  0
  6  7  2  0  0  0  0
  6 31  1  0  0  0  0
  7  8  1  0  0  0  0
  7 15  1  0  0  0  0
  8  9  1  0  0  0  0
  9 10  2  0  0  0  0
  9 14  1  0  0  0  0
 10 11  1  0  0  0  0
 10 32  1  0  0  0  0
 11 12  2  0  0  0  0
 11 33  1  0  0  0  0
 12 13  1  0  0  0  0
 12 34  1  0  0  0  0
 13 14  2  0  0  0  0
 13 35  1  0  0  0  0
 14 36  1  0  0  0  0
 15 16  2  0  0  0  0
 16 37  1  0  0  0  0
 17 18  2  0  0  0  0
 17 28  1  0  0  0  0
 18 19  1  0  0  0  0
 18 38  1  0  0  0  0
 19 20  2  0  0  0  0
 19 21  1  0  0  0  0
 21 22  1  0  0  0  0
 21 39  1  0  0  0  0
 22 23  2  0  0  0  0
 22 28  1  0  0  0  0
 23 24  1  0  0  0  0
 23 40  1  0  0  0  0
 24 25  2  0  0  0  0
 24 41  1  0  0  0  0
 25 26  1  0  0  0  0
 25 27  1  0  0  0  0
 27 28  2  0  0  0  0
 27 42  1  0  0  0  0
M  END
$$$$
