
 OpenBabel01122422413D

 48 51  0  0  0  0  0  0  0  0999 V2000
    0.8064   -0.0980    0.1999 C   0  0  0  0  0  0  0  0  0  0  0  0
    2.2500   -0.0961    0.0674 N   0  0  0  0  0  0  0  0  0  0  0  0
    2.8566    0.9434   -0.6228 C   0  0  0  0  0  0  0  0  0  0  0  0
    2.2578    1.8740   -1.1560 O   0  0  0  0  0  0  0  0  0  0  0  0
    4.2229    0.9037   -0.7008 N   0  0  0  0  0  0  0  0  0  0  0  0
    5.0125   -0.1035   -0.1472 C   0  0  0  0  0  0  0  0  0  0  0  0
    6.4035   -0.0488   -0.2644 C   0  0  0  0  0  0  0  0  0  0  0  0
    7.1913   -1.0660    0.2965 C   0  0  0  0  0  0  0  0  0  0  0  0
    8.6746   -0.9330    0.2413 C   0  0  0  0  0  0  0  0  0  0  0  0
    9.1652    0.1861    0.3087 O   0  0  0  0  0  0  0  0  0  0  0  0
    9.3691   -2.1136    0.0444 N   0  0  0  0  0  0  0  0  0  0  0  0
   10.7742   -2.1604   -0.1629 C   0  0  0  0  0  0  0  0  0  0  0  0
   11.1921   -2.8842   -1.2930 C   0  0  0  0  0  0  0  0  0  0  0  0
   12.5411   -2.9710   -1.6136 C   0  0  0  0  0  0  0  0  0  0  0  0
   12.9176   -3.6198   -2.7227 F   0  0  0  0  0  0  0  0  0  0  0  0
   13.4991   -2.3934   -0.8029 C   0  0  0  0  0  0  0  0  0  0  0  0
   13.0985   -1.7060    0.3418 C   0  0  0  0  0  0  0  0  0  0  0  0
   11.7409   -1.5581    0.6809 C   0  0  0  0  0  0  0  0  0  0  0  0
   11.3654   -0.9014    1.8819 N   0  0  0  0  0  0  0  0  0  0  0  0
   12.1846   -0.1306    2.6903 C   0  0  0  0  0  0  0  0  0  0  0  0
   13.3624    0.1526    2.4812 O   0  0  0  0  0  0  0  0  0  0  0  0
   11.5510    0.4092    3.9379 C   0  0  0  0  0  0  0  0  0  0  0  0
   12.3153    1.2165    4.7821 C   0  0  0  0  0  0  0  0  0  0  0  0
   11.7312    1.7123    5.9410 C   0  0  0  0  0  0  0  0  0  0  0  0
   10.4107    1.3846    6.2204 C   0  0  0  0  0  0  0  0  0  0  0  0
    9.7273    0.5663    5.3285 C   0  0  0  0  0  0  0  0  0  0  0  0
   10.2599    0.0622    4.1902 N   0  0  0  0  0  0  0  0  0  0  0  0
    6.5803   -2.1419    0.9558 C   0  0  0  0  0  0  0  0  0  0  0  0
    5.1867   -2.1831    1.0764 C   0  0  0  0  0  0  0  0  0  0  0  0
    4.4073   -1.1554    0.5298 C   0  0  0  0  0  0  0  0  0  0  0  0
    2.9377   -1.1472    0.6753 C   0  0  0  0  0  0  0  0  0  0  0  0
    2.3955   -2.0439    1.3175 O   0  0  0  0  0  0  0  0  0  0  0  0
    0.3389    0.7420   -0.3210 H   0  0  0  0  0  0  0  0  0  0  0  0
    0.5460   -0.0485    1.2622 H   0  0  0  0  0  0  0  0  0  0  0  0
    0.4128   -1.0342   -0.2078 H   0  0  0  0  0  0  0  0  0  0  0  0
    4.6472    1.6733   -1.2045 H   0  0  0  0  0  0  0  0  0  0  0  0
    6.8858    0.7831   -0.7743 H   0  0  0  0  0  0  0  0  0  0  0  0
    8.8366   -2.8383   -0.4239 H   0  0  0  0  0  0  0  0  0  0  0  0
   10.4797   -3.3413   -1.9722 H   0  0  0  0  0  0  0  0  0  0  0  0
   14.5522   -2.4805   -1.0505 H   0  0  0  0  0  0  0  0  0  0  0  0
   13.8910   -1.3120    0.9694 H   0  0  0  0  0  0  0  0  0  0  0  0
   10.3808   -0.8982    2.1321 H   0  0  0  0  0  0  0  0  0  0  0  0
   13.3473    1.4546    4.5402 H   0  0  0  0  0  0  0  0  0  0  0  0
   12.3017    2.3475    6.6139 H   0  0  0  0  0  0  0  0  0  0  0  0
    9.9247    1.7600    7.1148 H   0  0  0  0  0  0  0  0  0  0  0  0
    8.6939    0.2892    5.5205 H   0  0  0  0  0  0  0  0  0  0  0  0
    7.1742   -2.9266    1.4190 H   0  0  0  0  0  0  0  0  0  0  0  0
    4.7109   -3.0020    1.6137 H   0  0  0  0  0  0  0  0  0  0  0  0
  1  2  1  0  0  0  0
  1 33  1  0  0  0  0
  1 34  1  0  0  0  0
  1 35  1  0  0  0  0
  2  3  1  0  0  0  0
  2 31  1  0  0  0  0
  3  4  2  0  0  0  0
  3  5  1  0  0  0  0
  5  6  1  0  0  0  0
  5 36  1  0  0  0  0
  6  7  2  0  0  0  0
  6 30  1  0  0  0  0
  7  8  1  0  0  0  0
  7 37  1  0  0  0  0
  8  9  1  0  0  0  0
  8 28  2  0  0  0  0
  9 10  2  0  0  0  0
  9 11  1  0  0  0  0
 11 12  1  0  0  0  0
 11 38  1  0  0  0  0
 12 13  2  0  0  0  0
 12 18  1  0  0  0  0
 13 14  1  0  0  0  0
 13 39  1  0  0  0  0
 14 15  1  0  0  0  0
 14 16  2  0  0  0  0
 16 17  1  0  0  0  0
 16 40  1  0  0  0  0
 17 18  2  0  0  0  0
 17 41  1  0  0  0  0
 18 19  1  0  0  0  0
 19 20  1  0  0  0  0
 19 42  1  0  0  0  0
 20 21  2  0  0  0  0
 20 22  1  0  0  0  0
 22 23  2  0  0  0  0
 22 27  1  0  0  0  0
 23 24  1  0  0  0  0
 23 43  1  0  0  0  0
 24 25  2  0  0  0  0
 24 44  1  0  0  0  0
 25 26  1  0  0  0  0
 25 45  1  0  0  0  0
 26 27  2  0  0  0  0
 26 46  1  0  0  0  0
 28 29  1  0  0  0  0
 28 47  1  0  0  0  0
 29 30  2  0  0  0  0
 29 48  1  0  0  0  0
 30 31  1  0  0  0  0
 31 32  2  0  0  0  0
M  END
$$$$
