
 OpenBabel01122422353D

 43 46  0  0  0  0  0  0  0  0999 V2000
    0.5479   -0.9647    0.0202 C   0  0  0  0  0  0  0  0  0  0  0  0
    1.9253   -0.7012    0.2852 O   0  0  0  0  0  0  0  0  0  0  0  0
    2.8336   -1.3735   -0.4991 C   0  0  0  0  0  0  0  0  0  0  0  0
    2.5281   -1.7497   -1.8208 C   0  0  0  0  0  0  0  0  0  0  0  0
    3.4764   -2.3863   -2.6178 C   0  0  0  0  0  0  0  0  0  0  0  0
    4.7285   -2.6496   -2.0953 C   0  0  0  0  0  0  0  0  0  0  0  0
    5.6479   -3.2584   -2.8548 F   0  0  0  0  0  0  0  0  0  0  0  0
    5.0514   -2.2853   -0.7929 C   0  0  0  0  0  0  0  0  0  0  0  0
    4.1240   -1.6206    0.0412 C   0  0  0  0  0  0  0  0  0  0  0  0
    4.5432   -1.2483    1.4194 C   0  0  0  0  0  0  0  0  0  0  0  0
    5.8532   -0.8415    1.7137 C   0  0  0  0  0  0  0  0  0  0  0  0
    6.3407   -0.5623    2.9511 N   0  0  0  0  0  0  0  0  0  0  0  0
    5.4808   -0.6735    3.9796 C   0  0  0  0  0  0  0  0  0  0  0  0
    4.1524   -1.0350    3.8250 C   0  0  0  0  0  0  0  0  0  0  0  0
    3.2455   -1.0990    5.0128 C   0  0  0  0  0  0  0  0  0  0  0  0
    3.0098   -2.4246    5.5657 N   0  0  0  0  0  0  0  0  0  0  0  0
    2.5067   -3.3639    4.6954 C   0  0  0  0  0  0  0  0  0  0  0  0
    1.3112   -3.8432    4.7578 N   0  0  0  0  0  0  0  0  0  0  0  0
    0.4751   -3.3116    5.7575 C   0  0  0  0  0  0  0  0  0  0  0  0
   -0.9111   -3.3300    5.6184 C   0  0  0  0  0  0  0  0  0  0  0  0
   -1.4701   -3.8430    4.5110 F   0  0  0  0  0  0  0  0  0  0  0  0
   -1.7226   -2.7416    6.5853 C   0  0  0  0  0  0  0  0  0  0  0  0
   -3.0487   -2.6907    6.4036 F   0  0  0  0  0  0  0  0  0  0  0  0
   -1.1746   -2.1598    7.7281 C   0  0  0  0  0  0  0  0  0  0  0  0
    0.2076   -2.1259    7.8866 C   0  0  0  0  0  0  0  0  0  0  0  0
    1.0121   -2.6721    6.8797 C   0  0  0  0  0  0  0  0  0  0  0  0
    2.4520   -2.3683    6.8361 C   0  0  0  0  0  0  0  0  0  0  0  0
    3.0505   -1.9827    7.8329 O   0  0  0  0  0  0  0  0  0  0  0  0
    3.6929   -1.3210    2.5282 C   0  0  0  0  0  0  0  0  0  0  0  0
   -0.0356   -0.5751    0.8598 H   0  0  0  0  0  0  0  0  0  0  0  0
    0.3497   -2.0401   -0.0527 H   0  0  0  0  0  0  0  0  0  0  0  0
    0.2165   -0.4413   -0.8822 H   0  0  0  0  0  0  0  0  0  0  0  0
    1.5604   -1.5365   -2.2643 H   0  0  0  0  0  0  0  0  0  0  0  0
    3.2468   -2.6706   -3.6396 H   0  0  0  0  0  0  0  0  0  0  0  0
    6.0460   -2.5431   -0.4390 H   0  0  0  0  0  0  0  0  0  0  0  0
    6.5956   -0.7334    0.9298 H   0  0  0  0  0  0  0  0  0  0  0  0
    5.8963   -0.4403    4.9539 H   0  0  0  0  0  0  0  0  0  0  0  0
    2.2634   -0.6977    4.7165 H   0  0  0  0  0  0  0  0  0  0  0  0
    3.5980   -0.4239    5.8039 H   0  0  0  0  0  0  0  0  0  0  0  0
    3.1992   -3.6604    3.8909 H   0  0  0  0  0  0  0  0  0  0  0  0
   -1.8265   -1.6955    8.4616 H   0  0  0  0  0  0  0  0  0  0  0  0
    0.6562   -1.6172    8.7380 H   0  0  0  0  0  0  0  0  0  0  0  0
    2.6551   -1.6219    2.3918 H   0  0  0  0  0  0  0  0  0  0  0  0
  1  2  1  0  0  0  0
  1 30  1  0  0  0  0
  1 31  1  0  0  0  0
  1 32  1  0  0  0  0
  2  3  1  0  0  0  0
  3  4  2  0  0  0  0
  3  9  1  0  0  0  0
  4  5  1  0  0  0  0
  4 33  1  0  0  0  0
  5  6  2  0  0  0  0
  5 34  1  0  0  0  0
  6  7  1  0  0  0  0
  6  8  1  0  0  0  0
  8  9  2  0  0  0  0
  8 35  1  0  0  0  0
  9 10  1  0  0  0  0
 10 11  2  0  0  0  0
 10 29  1  0  0  0  0
 11 12  1  0  0  0  0
 11 36  1  0  0  0  0
 12 13  2  0  0  0  0
 13 14  1  0  0  0  0
 13 37  1  0  0  0  0
 14 15  1  0  0  0  0
 14 29  2  0  0  0  0
 15 16  1  0  0  0  0
 15 38  1  0  0  0  0
 15 39  1  0  0  0  0
 16 17  1  0  0  0  0
 16 27  1  0  0  0  0
 17 18  2  0  0  0  0
 17 40  1  0  0  0  0
 18 19  1  0  0  0  0
 19 20  2  0  0  0  0
 19 26  1  0  0  0  0
 20 21  1  0  0  0  0
 20 22  1  0  0  0  0
 22 23  1  0  0  0  0
 22 24  2  0  0  0  0
 24 25  1  0  0  0  0
 24 41  1  0  0  0  0
 25 26  2  0  0  0  0
 25 42  1  0  0  0  0
 26 27  1  0  0  0  0
 27 28  2  0  0  0  0
 29 43  1  0  0  0  0
M  END
$$$$
