
 OpenBabel01122422413D

 42 45  0  0  0  0  0  0  0  0999 V2000
    1.4181   -1.0850   -0.0683 O   0  0  0  0  0  0  0  0  0  0  0  0
    2.2808   -0.2497    0.1975 C   0  0  0  0  0  0  0  0  0  0  0  0
    2.4513    0.3707    1.4214 N   0  0  0  0  0  0  0  0  0  0  0  0
    1.7819    0.0584    2.5862 C   0  0  0  0  0  0  0  0  0  0  0  0
    0.6948   -0.7289    2.6630 C   0  0  0  0  0  0  0  0  0  0  0  0
    0.0488   -1.0442    3.8499 N   0  0  0  0  0  0  0  0  0  0  0  0
   -1.1073   -1.9162    3.8384 C   0  0  0  0  0  0  0  0  0  0  0  0
   -2.1651   -1.7473    4.7430 C   0  0  0  0  0  0  0  0  0  0  0  0
   -3.2890   -2.5764    4.7025 C   0  0  0  0  0  0  0  0  0  0  0  0
   -3.3717   -3.6003    3.7665 C   0  0  0  0  0  0  0  0  0  0  0  0
   -2.3371   -3.7882    2.8595 C   0  0  0  0  0  0  0  0  0  0  0  0
   -1.2200   -2.9480    2.8912 C   0  0  0  0  0  0  0  0  0  0  0  0
    0.5150   -0.5209    5.0737 C   0  0  0  0  0  0  0  0  0  0  0  0
    0.0613   -0.7222    6.1957 O   0  0  0  0  0  0  0  0  0  0  0  0
    1.7378    0.3325    4.9865 C   0  0  0  0  0  0  0  0  0  0  0  0
    2.3221    0.5983    3.8124 C   0  0  0  0  0  0  0  0  0  0  0  0
    3.3765    0.0028   -0.7730 C   0  0  0  0  0  0  0  0  0  0  0  0
    3.3219   -0.6879   -1.9298 C   0  0  0  0  0  0  0  0  0  0  0  0
    4.4410   -1.2413   -2.5508 N   0  0  0  0  0  0  0  0  0  0  0  0
    5.4951   -1.5100   -1.6249 C   0  0  0  0  0  0  0  0  0  0  0  0
    6.1494   -2.7367   -1.6354 C   0  0  0  0  0  0  0  0  0  0  0  0
    7.0790   -3.0190   -0.6316 C   0  0  0  0  0  0  0  0  0  0  0  0
    7.4034   -2.0494    0.3211 C   0  0  0  0  0  0  0  0  0  0  0  0
    8.2892   -2.3449    1.2803 F   0  0  0  0  0  0  0  0  0  0  0  0
    6.7678   -0.8175    0.3457 C   0  0  0  0  0  0  0  0  0  0  0  0
    5.7706   -0.5899   -0.5942 C   0  0  0  0  0  0  0  0  0  0  0  0
    4.7331    0.4281   -0.3286 C   0  0  0  0  0  0  0  0  0  0  0  0
    4.9133    1.4162    0.3633 O   0  0  0  0  0  0  0  0  0  0  0  0
    3.2322    1.0223    1.4998 H   0  0  0  0  0  0  0  0  0  0  0  0
    0.2340   -1.1302    1.7647 H   0  0  0  0  0  0  0  0  0  0  0  0
   -2.1541   -0.9389    5.4646 H   0  0  0  0  0  0  0  0  0  0  0  0
   -4.0986   -2.4126    5.4091 H   0  0  0  0  0  0  0  0  0  0  0  0
   -4.2419   -4.2523    3.7473 H   0  0  0  0  0  0  0  0  0  0  0  0
   -2.3908   -4.5916    2.1283 H   0  0  0  0  0  0  0  0  0  0  0  0
   -0.4285   -3.1522    2.1941 H   0  0  0  0  0  0  0  0  0  0  0  0
    2.1301    0.6986    5.9273 H   0  0  0  0  0  0  0  0  0  0  0  0
    3.2256    1.1981    3.7842 H   0  0  0  0  0  0  0  0  0  0  0  0
    2.4082   -1.1672   -2.2771 H   0  0  0  0  0  0  0  0  0  0  0  0
    4.7939   -0.5756   -3.2463 H   0  0  0  0  0  0  0  0  0  0  0  0
    5.8601   -3.5052   -2.3480 H   0  0  0  0  0  0  0  0  0  0  0  0
    7.5279   -4.0053   -0.5612 H   0  0  0  0  0  0  0  0  0  0  0  0
    6.9697   -0.1104    1.1429 H   0  0  0  0  0  0  0  0  0  0  0  0
  1  2  2  0  0  0  0
  2  3  1  0  0  0  0
  2 17  1  0  0  0  0
  3  4  1  0  0  0  0
  3 29  1  0  0  0  0
  4  5  2  0  0  0  0
  4 16  1  0  0  0  0
  5  6  1  0  0  0  0
  5 30  1  0  0  0  0
  6  7  1  0  0  0  0
  6 13  1  0  0  0  0
  7  8  2  0  0  0  0
  7 12  1  0  0  0  0
  8  9  1  0  0  0  0
  8 31  1  0  0  0  0
  9 10  2  0  0  0  0
  9 32  1  0  0  0  0
 10 11  1  0  0  0  0
 10 33  1  0  0  0  0
 11 12  2  0  0  0  0
 11 34  1  0  0  0  0
 12 35  1  0  0  0  0
 13 14  2  0  0  0  0
 13 15  1  0  0  0  0
 15 16  2  0  0  0  0
 15 36  1  0  0  0  0
 16 37  1  0  0  0  0
 17 18  2  0  0  0  0
 17 27  1  0  0  0  0
 18 19  1  0  0  0  0
 18 38  1  0  0  0  0
 19 20  1  0  0  0  0
 19 39  1  0  0  0  0
 20 21  2  0  0  0  0
 20 26  1  0  0  0  0
 21 22  1  0  0  0  0
 21 40  1  0  0  0  0
 22 23  2  0  0  0  0
 22 41  1  0  0  0  0
 23 24  1  0  0  0  0
 23 25  1  0  0  0  0
 25 26  2  0  0  0  0
 25 42  1  0  0  0  0
 26 27  1  0  0  0  0
 27 28  2  0  0  0  0
M  END
$$$$
