
 OpenBabel01122422413D

 44 47  0  0  0  0  0  0  0  0999 V2000
    3.5591    0.2583    8.4581 C   0  0  0  0  0  0  0  0  0  0  0  0
    3.0685   -0.5032    7.3582 O   0  0  0  0  0  0  0  0  0  0  0  0
    3.6654   -0.1538    6.1671 C   0  0  0  0  0  0  0  0  0  0  0  0
    3.2883   -0.8284    5.0192 C   0  0  0  0  0  0  0  0  0  0  0  0
    3.8193   -0.5497    3.8035 N   0  0  0  0  0  0  0  0  0  0  0  0
    4.7384    0.4357    3.7689 C   0  0  0  0  0  0  0  0  0  0  0  0
    5.3307    0.8027    2.5653 C   0  0  0  0  0  0  0  0  0  0  0  0
    6.2843    1.8235    2.5112 C   0  0  0  0  0  0  0  0  0  0  0  0
    6.6628    2.4866    3.6797 C   0  0  0  0  0  0  0  0  0  0  0  0
    7.6628    3.5902    3.6044 C   0  0  0  0  0  0  0  0  0  0  0  0
    7.6925    4.2539    2.5753 O   0  0  0  0  0  0  0  0  0  0  0  0
    8.4952    3.7021    4.7010 N   0  0  0  0  0  0  0  0  0  0  0  0
    9.4506    4.7171    4.8724 C   0  0  0  0  0  0  0  0  0  0  0  0
    9.4348    5.8026    4.0813 N   0  0  0  0  0  0  0  0  0  0  0  0
   10.3736    6.7657    4.2426 C   0  0  0  0  0  0  0  0  0  0  0  0
   10.2891    7.8867    3.2821 C   0  0  0  0  0  0  0  0  0  0  0  0
   11.4183    8.6266    2.8955 C   0  0  0  0  0  0  0  0  0  0  0  0
   11.3165    9.6391    1.9444 C   0  0  0  0  0  0  0  0  0  0  0  0
   12.4175   10.3130    1.5879 F   0  0  0  0  0  0  0  0  0  0  0  0
   10.1039    9.9529    1.3488 C   0  0  0  0  0  0  0  0  0  0  0  0
    8.9635    9.2411    1.7160 C   0  0  0  0  0  0  0  0  0  0  0  0
    7.7032    9.5445    1.1043 C   0  0  0  0  0  0  0  0  0  0  0  0
    6.6926    9.8143    0.6011 N   0  0  0  0  0  0  0  0  0  0  0  0
    9.0586    8.2226    2.6754 C   0  0  0  0  0  0  0  0  0  0  0  0
   11.3481    6.6644    5.2312 C   0  0  0  0  0  0  0  0  0  0  0  0
   11.3541    5.5470    6.0602 C   0  0  0  0  0  0  0  0  0  0  0  0
   10.3878    4.5624    5.8855 C   0  0  0  0  0  0  0  0  0  0  0  0
    6.0629    2.1379    4.8901 C   0  0  0  0  0  0  0  0  0  0  0  0
    5.1190    1.1239    4.9489 C   0  0  0  0  0  0  0  0  0  0  0  0
    4.5907    0.8283    6.1448 N   0  0  0  0  0  0  0  0  0  0  0  0
    3.0074   -0.0451    9.3525 H   0  0  0  0  0  0  0  0  0  0  0  0
    3.3876    1.3310    8.3114 H   0  0  0  0  0  0  0  0  0  0  0  0
    4.6213    0.0529    8.6335 H   0  0  0  0  0  0  0  0  0  0  0  0
    2.5445   -1.6160    5.0463 H   0  0  0  0  0  0  0  0  0  0  0  0
    5.0378    0.2884    1.6531 H   0  0  0  0  0  0  0  0  0  0  0  0
    6.7245    2.1016    1.5538 H   0  0  0  0  0  0  0  0  0  0  0  0
    8.4961    2.9641    5.3873 H   0  0  0  0  0  0  0  0  0  0  0  0
   12.4038    8.4104    3.2971 H   0  0  0  0  0  0  0  0  0  0  0  0
   10.0655   10.7387    0.5998 H   0  0  0  0  0  0  0  0  0  0  0  0
    8.1616    7.6603    2.9453 H   0  0  0  0  0  0  0  0  0  0  0  0
   12.0970    7.4364    5.3715 H   0  0  0  0  0  0  0  0  0  0  0  0
   12.1144    5.4428    6.8299 H   0  0  0  0  0  0  0  0  0  0  0  0
   10.3968    3.6842    6.5223 H   0  0  0  0  0  0  0  0  0  0  0  0
    6.2929    2.6736    5.8054 H   0  0  0  0  0  0  0  0  0  0  0  0
  1  2  1  0  0  0  0
  1 31  1  0  0  0  0
  1 32  1  0  0  0  0
  1 33  1  0  0  0  0
  2  3  1  0  0  0  0
  3  4  2  0  0  0  0
  3 30  1  0  0  0  0
  4  5  1  0  0  0  0
  4 34  1  0  0  0  0
  5  6  2  0  0  0  0
  6  7  1  0  0  0  0
  6 29  1  0  0  0  0
  7  8  2  0  0  0  0
  7 35  1  0  0  0  0
  8  9  1  0  0  0  0
  8 36  1  0  0  0  0
  9 10  1  0  0  0  0
  9 28  2  0  0  0  0
 10 11  2  0  0  0  0
 10 12  1  0  0  0  0
 12 13  1  0  0  0  0
 12 37  1  0  0  0  0
 13 14  2  0  0  0  0
 13 27  1  0  0  0  0
 14 15  1  0  0  0  0
 15 16  1  0  0  0  0
 15 25  2  0  0  0  0
 16 17  2  0  0  0  0
 16 24  1  0  0  0  0
 17 18  1  0  0  0  0
 17 38  1  0  0  0  0
 18 19  1  0  0  0  0
 18 20  2  0  0  0  0
 20 21  1  0  0  0  0
 20 39  1  0  0  0  0
 21 22  1  0  0  0  0
 21 24  2  0  0  0  0
 22 23  3  0  0  0  0
 24 40  1  0  0  0  0
 25 26  1  0  0  0  0
 25 41  1  0  0  0  0
 26 27  2  0  0  0  0
 26 42  1  0  0  0  0
 27 43  1  0  0  0  0
 28 29  1  0  0  0  0
 28 44  1  0  0  0  0
 29 30  2  0  0  0  0
M  END
$$$$
