
 OpenBabel01122422413D

 48 51  0  0  1  0  0  0  0  0999 V2000
    1.1884    0.1437   -0.5579 O   0  0  0  0  0  0  0  0  0  0  0  0
    2.3853    0.1292   -0.2877 C   0  0  0  0  0  0  0  0  0  0  0  0
    3.0869    1.2535    0.0748 N   0  0  0  0  0  0  0  0  0  0  0  0
    2.4141    2.5203    0.2454 C   0  0  3  0  0  0  0  0  0  0  0  0
    1.7992    2.6712    1.6316 C   0  0  0  0  0  0  0  0  0  0  0  0
    0.4050    2.8047    1.7708 C   0  0  0  0  0  0  0  0  0  0  0  0
   -0.1904    2.9872    3.0323 C   0  0  0  0  0  0  0  0  0  0  0  0
   -1.6822    3.1595    3.1713 C   0  0  0  0  0  0  0  0  0  0  0  0
   -2.3531    3.1397    1.9852 F   0  0  0  0  0  0  0  0  0  0  0  0
   -2.2561    2.1948    3.9414 F   0  0  0  0  0  0  0  0  0  0  0  0
   -2.0130    4.3462    3.7580 F   0  0  0  0  0  0  0  0  0  0  0  0
    0.6255    3.0150    4.1695 C   0  0  0  0  0  0  0  0  0  0  0  0
    2.0067    2.8709    4.0505 C   0  0  0  0  0  0  0  0  0  0  0  0
    2.5884    2.7000    2.7924 C   0  0  0  0  0  0  0  0  0  0  0  0
    3.3712    3.6188   -0.0890 C   0  0  0  0  0  0  0  0  0  0  0  0
    4.5446    3.8828    0.4530 N   0  0  0  0  0  0  0  0  0  0  0  0
    5.0407    5.0198   -0.1406 N   0  0  0  0  0  0  0  0  0  0  0  0
    4.1744    5.4083   -1.0452 C   0  0  0  0  0  0  0  0  0  0  0  0
    3.1246    4.5446   -1.0698 N   0  0  0  0  0  0  0  0  0  0  0  0
    3.1478   -1.1510   -0.3302 C   0  0  0  0  0  0  0  0  0  0  0  0
    2.4360   -2.3223   -0.1971 C   0  0  0  0  0  0  0  0  0  0  0  0
    3.1679   -3.4877   -0.2212 C   0  0  0  0  0  0  0  0  0  0  0  0
    2.4748   -4.6992   -0.0108 N   0  0  0  0  0  0  0  0  0  0  0  0
    3.0401   -5.9343    0.3580 C   0  0  0  0  0  0  0  0  0  0  0  0
    4.0609   -6.0111    1.3136 C   0  0  0  0  0  0  0  0  0  0  0  0
    4.6152   -7.2392    1.6749 C   0  0  0  0  0  0  0  0  0  0  0  0
    4.1585   -8.4114    1.0770 C   0  0  0  0  0  0  0  0  0  0  0  0
    3.1363   -8.3528    0.1309 C   0  0  0  0  0  0  0  0  0  0  0  0
    2.5743   -7.1233   -0.2211 C   0  0  0  0  0  0  0  0  0  0  0  0
    4.5001   -3.4656   -0.4050 N   0  0  0  0  0  0  0  0  0  0  0  0
    5.0917   -2.2707   -0.5523 C   0  0  0  0  0  0  0  0  0  0  0  0
    4.4861   -1.0797   -0.4996 N   0  0  0  0  0  0  0  0  0  0  0  0
    4.0612    1.1653    0.3461 H   0  0  0  0  0  0  0  0  0  0  0  0
    1.6006    2.5517   -0.4911 H   0  0  0  0  0  0  0  0  0  0  0  0
   -0.2313    2.7684    0.8852 H   0  0  0  0  0  0  0  0  0  0  0  0
    0.1867    3.1556    5.1567 H   0  0  0  0  0  0  0  0  0  0  0  0
    2.6358    2.9032    4.9369 H   0  0  0  0  0  0  0  0  0  0  0  0
    3.6717    2.6095    2.7223 H   0  0  0  0  0  0  0  0  0  0  0  0
    4.2569    6.2738   -1.6863 H   0  0  0  0  0  0  0  0  0  0  0  0
    2.3200    4.5823   -1.6790 H   0  0  0  0  0  0  0  0  0  0  0  0
    1.3673   -2.3187   -0.0333 H   0  0  0  0  0  0  0  0  0  0  0  0
    1.6779   -4.7854   -0.6298 H   0  0  0  0  0  0  0  0  0  0  0  0
    4.4234   -5.1056    1.7938 H   0  0  0  0  0  0  0  0  0  0  0  0
    5.4042   -7.2748    2.4214 H   0  0  0  0  0  0  0  0  0  0  0  0
    4.5975   -9.3656    1.3509 H   0  0  0  0  0  0  0  0  0  0  0  0
    2.7814   -9.2666   -0.3390 H   0  0  0  0  0  0  0  0  0  0  0  0
    1.7831   -7.1021   -0.9639 H   0  0  0  0  0  0  0  0  0  0  0  0
    6.1620   -2.2813   -0.7357 H   0  0  0  0  0  0  0  0  0  0  0  0
  1  2  2  0  0  0  0
  2  3  1  0  0  0  0
  2 20  1  0  0  0  0
  3  4  1  0  0  0  0
  3 33  1  0  0  0  0
  4  5  1  0  0  0  0
  4 15  1  0  0  0  0
  4 34  1  0  0  0  0
  5  6  2  0  0  0  0
  5 14  1  0  0  0  0
  6  7  1  0  0  0  0
  6 35  1  0  0  0  0
  7  8  1  0  0  0  0
  7 12  2  0  0  0  0
  8  9  1  0  0  0  0
  8 10  1  0  0  0  0
  8 11  1  0  0  0  0
 12 13  1  0  0  0  0
 12 36  1  0  0  0  0
 13 14  2  0  0  0  0
 13 37  1  0  0  0  0
 14 38  1  0  0  0  0
 15 16  2  0  0  0  0
 15 19  1  0  0  0  0
 16 17  1  0  0  0  0
 17 18  2  0  0  0  0
 18 19  1  0  0  0  0
 18 39  1  0  0  0  0
 19 40  1  0  0  0  0
 20 21  2  0  0  0  0
 20 32  1  0  0  0  0
 21 22  1  0  0  0  0
 21 41  1  0  0  0  0
 22 23  1  0  0  0  0
 22 30  2  0  0  0  0
 23 24  1  0  0  0  0
 23 42  1  0  0  0  0
 24 25  2  0  0  0  0
 24 29  1  0  0  0  0
 25 26  1  0  0  0  0
 25 43  1  0  0  0  0
 26 27  2  0  0  0  0
 26 44  1  0  0  0  0
 27 28  1  0  0  0  0
 27 45  1  0  0  0  0
 28 29  2  0  0  0  0
 28 46  1  0  0  0  0
 29 47  1  0  0  0  0
 30 31  1  0  0  0  0
 31 32  2  0  0  0  0
 31 48  1  0  0  0  0
M  END
$$$$
