
 OpenBabel01122422423D

 50 53  0  0  0  0  0  0  0  0999 V2000
    1.1002   -0.3043   -0.0209 C   0  0  0  0  0  0  0  0  0  0  0  0
    2.5259   -0.2979   -0.0430 O   0  0  0  0  0  0  0  0  0  0  0  0
    3.0702   -0.7700   -1.1939 C   0  0  0  0  0  0  0  0  0  0  0  0
    2.4516   -1.1415   -2.1759 O   0  0  0  0  0  0  0  0  0  0  0  0
    4.5487   -0.7408   -1.0853 C   0  0  0  0  0  0  0  0  0  0  0  0
    5.1754   -0.8579    0.1700 C   0  0  0  0  0  0  0  0  0  0  0  0
    6.5623   -0.8607    0.3056 C   0  0  0  0  0  0  0  0  0  0  0  0
    7.2089   -1.0239    1.5574 N   0  0  0  0  0  0  0  0  0  0  0  0
    6.5921   -1.1716    2.7974 C   0  0  0  0  0  0  0  0  0  0  0  0
    5.3842   -1.1342    3.0168 O   0  0  0  0  0  0  0  0  0  0  0  0
    7.5618   -1.3893    3.9543 C   0  0  0  0  0  0  0  0  0  0  0  0
    7.8093   -2.7850    4.0670 O   0  0  0  0  0  0  0  0  0  0  0  0
    8.5656   -3.1982    5.1302 C   0  0  0  0  0  0  0  0  0  0  0  0
    9.1660   -2.3647    6.0759 C   0  0  0  0  0  0  0  0  0  0  0  0
    9.9821   -2.9075    7.0703 C   0  0  0  0  0  0  0  0  0  0  0  0
   10.1847   -4.2841    7.1359 C   0  0  0  0  0  0  0  0  0  0  0  0
    9.5212   -5.1327    6.2476 C   0  0  0  0  0  0  0  0  0  0  0  0
    9.6542   -6.5046    6.2662 O   0  0  0  0  0  0  0  0  0  0  0  0
    9.7174   -7.1438    7.5014 C   0  0  0  0  0  0  0  0  0  0  0  0
   10.3286   -8.3891    7.5249 C   0  0  0  0  0  0  0  0  0  0  0  0
   10.4332   -9.0488    8.7472 C   0  0  0  0  0  0  0  0  0  0  0  0
    9.9209   -8.4488    9.8931 C   0  0  0  0  0  0  0  0  0  0  0  0
    9.3055   -7.2152    9.7672 C   0  0  0  0  0  0  0  0  0  0  0  0
    9.1801   -6.5577    8.5968 N   0  0  0  0  0  0  0  0  0  0  0  0
    8.7378   -4.5843    5.2283 C   0  0  0  0  0  0  0  0  0  0  0  0
    7.3649   -0.7180   -0.8396 C   0  0  0  0  0  0  0  0  0  0  0  0
    6.7334   -0.6079   -2.0938 C   0  0  0  0  0  0  0  0  0  0  0  0
    5.3435   -0.6328   -2.2444 C   0  0  0  0  0  0  0  0  0  0  0  0
    5.0762   -0.5254   -3.6405 C   0  0  0  0  0  0  0  0  0  0  0  0
    6.2794   -0.4268   -4.2970 C   0  0  0  0  0  0  0  0  0  0  0  0
    7.2729   -0.4689   -3.3560 N   0  0  0  0  0  0  0  0  0  0  0  0
    0.7744    0.1940    0.8963 H   0  0  0  0  0  0  0  0  0  0  0  0
    0.7316   -1.3342   -0.0079 H   0  0  0  0  0  0  0  0  0  0  0  0
    0.6937    0.2448   -0.8757 H   0  0  0  0  0  0  0  0  0  0  0  0
    4.5327   -0.9728    1.0351 H   0  0  0  0  0  0  0  0  0  0  0  0
    8.2199   -1.0817    1.5367 H   0  0  0  0  0  0  0  0  0  0  0  0
    7.0774   -0.9960    4.8576 H   0  0  0  0  0  0  0  0  0  0  0  0
    8.4901   -0.8383    3.7663 H   0  0  0  0  0  0  0  0  0  0  0  0
    9.0280   -1.2890    6.0695 H   0  0  0  0  0  0  0  0  0  0  0  0
   10.4595   -2.2600    7.8003 H   0  0  0  0  0  0  0  0  0  0  0  0
   10.8386   -4.6872    7.9039 H   0  0  0  0  0  0  0  0  0  0  0  0
   10.7246   -8.8296    6.6173 H   0  0  0  0  0  0  0  0  0  0  0  0
   10.9146  -10.0204    8.8072 H   0  0  0  0  0  0  0  0  0  0  0  0
    9.9970   -8.9300   10.8618 H   0  0  0  0  0  0  0  0  0  0  0  0
    8.8902   -6.7019   10.6295 H   0  0  0  0  0  0  0  0  0  0  0  0
    8.2488   -5.2388    4.5116 H   0  0  0  0  0  0  0  0  0  0  0  0
    8.4487   -0.7008   -0.7745 H   0  0  0  0  0  0  0  0  0  0  0  0
    4.0989   -0.5251   -4.1092 H   0  0  0  0  0  0  0  0  0  0  0  0
    6.5076   -0.3317   -5.3505 H   0  0  0  0  0  0  0  0  0  0  0  0
    8.2612   -0.4116   -3.5594 H   0  0  0  0  0  0  0  0  0  0  0  0
  1  2  1  0  0  0  0
  1 32  1  0  0  0  0
  1 33  1  0  0  0  0
  1 34  1  0  0  0  0
  2  3  1  0  0  0  0
  3  4  2  0  0  0  0
  3  5  1  0  0  0  0
  5  6  2  0  0  0  0
  5 28  1  0  0  0  0
  6  7  1  0  0  0  0
  6 35  1  0  0  0  0
  7  8  1  0  0  0  0
  7 26  2  0  0  0  0
  8  9  1  0  0  0  0
  8 36  1  0  0  0  0
  9 10  2  0  0  0  0
  9 11  1  0  0  0  0
 11 12  1  0  0  0  0
 11 37  1  0  0  0  0
 11 38  1  0  0  0  0
 12 13  1  0  0  0  0
 13 14  2  0  0  0  0
 13 25  1  0  0  0  0
 14 15  1  0  0  0  0
 14 39  1  0  0  0  0
 15 16  2  0  0  0  0
 15 40  1  0  0  0  0
 16 17  1  0  0  0  0
 16 41  1  0  0  0  0
 17 18  1  0  0  0  0
 17 25  2  0  0  0  0
 18 19  1  0  0  0  0
 19 20  2  0  0  0  0
 19 24  1  0  0  0  0
 20 21  1  0  0  0  0
 20 42  1  0  0  0  0
 21 22  2  0  0  0  0
 21 43  1  0  0  0  0
 22 23  1  0  0  0  0
 22 44  1  0  0  0  0
 23 24  2  0  0  0  0
 23 45  1  0  0  0  0
 25 46  1  0  0  0  0
 26 27  1  0  0  0  0
 26 47  1  0  0  0  0
 27 28  2  0  0  0  0
 27 31  1  0  0  0  0
 28 29  1  0  0  0  0
 29 30  2  0  0  0  0
 29 48  1  0  0  0  0
 30 31  1  0  0  0  0
 30 49  1  0  0  0  0
 31 50  1  0  0  0  0
M  END
$$$$
