
 OpenBabel01122422353D

 50 53  0  0  0  0  0  0  0  0999 V2000
    5.8218    5.6142   -7.3656 C   0  0  0  0  0  0  0  0  0  0  0  0
    6.5884    4.8767   -6.3355 C   0  0  0  0  0  0  0  0  0  0  0  0
    6.7917    5.1912   -5.0068 C   0  0  0  0  0  0  0  0  0  0  0  0
    7.5601    4.1763   -4.4937 N   0  0  0  0  0  0  0  0  0  0  0  0
    8.0447    3.9894   -3.2014 C   0  0  0  0  0  0  0  0  0  0  0  0
    8.7863    2.8970   -2.9170 C   0  0  0  0  0  0  0  0  0  0  0  0
    9.2396    2.7033   -1.4984 C   0  0  0  0  0  0  0  0  0  0  0  0
    8.6882    3.2835   -0.5675 O   0  0  0  0  0  0  0  0  0  0  0  0
   10.3162    1.8687   -1.3219 N   0  0  0  0  0  0  0  0  0  0  0  0
   10.8703    1.6444   -0.0026 C   0  0  0  0  0  0  0  0  0  0  0  0
   12.0376    0.6926   -0.0544 C   0  0  0  0  0  0  0  0  0  0  0  0
   13.3313    1.1864   -0.2462 C   0  0  0  0  0  0  0  0  0  0  0  0
   14.4221    0.3172   -0.3485 C   0  0  0  0  0  0  0  0  0  0  0  0
   14.2520   -1.0663   -0.2679 C   0  0  0  0  0  0  0  0  0  0  0  0
   15.3167   -1.9868   -0.3997 N   0  0  0  0  0  0  0  0  0  0  0  0
   16.6659   -1.6853   -0.4607 C   0  0  0  0  0  0  0  0  0  0  0  0
   17.1591   -0.5683   -0.3296 O   0  0  0  0  0  0  0  0  0  0  0  0
   17.6041   -2.8208   -0.7155 C   0  0  0  0  0  0  0  0  0  0  0  0
   18.8568   -2.4914   -1.2638 C   0  0  0  0  0  0  0  0  0  0  0  0
   19.8207   -3.4734   -1.4965 C   0  0  0  0  0  0  0  0  0  0  0  0
   19.5476   -4.7973   -1.1686 C   0  0  0  0  0  0  0  0  0  0  0  0
   18.3067   -5.1438   -0.6278 C   0  0  0  0  0  0  0  0  0  0  0  0
   17.3330   -4.1599   -0.4124 C   0  0  0  0  0  0  0  0  0  0  0  0
   16.1212   -4.5273    0.1078 O   0  0  0  0  0  0  0  0  0  0  0  0
   12.9590   -1.5650   -0.0722 C   0  0  0  0  0  0  0  0  0  0  0  0
   11.8618   -0.6945    0.0376 C   0  0  0  0  0  0  0  0  0  0  0  0
    9.0269    1.9304   -3.9919 C   0  0  0  0  0  0  0  0  0  0  0  0
    8.5541    2.1264   -5.2401 C   0  0  0  0  0  0  0  0  0  0  0  0
    7.7897    3.2876   -5.5372 C   0  0  0  0  0  0  0  0  0  0  0  0
    7.2185    3.6940   -6.6509 N   0  0  0  0  0  0  0  0  0  0  0  0
    5.3901    6.5348   -6.9603 H   0  0  0  0  0  0  0  0  0  0  0  0
    5.0039    4.9945   -7.7470 H   0  0  0  0  0  0  0  0  0  0  0  0
    6.4709    5.8820   -8.2053 H   0  0  0  0  0  0  0  0  0  0  0  0
    6.4598    6.0224   -4.4013 H   0  0  0  0  0  0  0  0  0  0  0  0
    7.7888    4.7450   -2.4671 H   0  0  0  0  0  0  0  0  0  0  0  0
   10.8561    1.5539   -2.1152 H   0  0  0  0  0  0  0  0  0  0  0  0
   10.0810    1.2613    0.6550 H   0  0  0  0  0  0  0  0  0  0  0  0
   11.1829    2.6119    0.4101 H   0  0  0  0  0  0  0  0  0  0  0  0
   13.5096    2.2572   -0.3189 H   0  0  0  0  0  0  0  0  0  0  0  0
   15.3985    0.7616   -0.5087 H   0  0  0  0  0  0  0  0  0  0  0  0
   15.0837   -2.9764   -0.4059 H   0  0  0  0  0  0  0  0  0  0  0  0
   19.0879   -1.4559   -1.5132 H   0  0  0  0  0  0  0  0  0  0  0  0
   20.7829   -3.1982   -1.9227 H   0  0  0  0  0  0  0  0  0  0  0  0
   20.3048   -5.5608   -1.3337 H   0  0  0  0  0  0  0  0  0  0  0  0
   18.1218   -6.1840   -0.3793 H   0  0  0  0  0  0  0  0  0  0  0  0
   16.1839   -5.4520    0.4080 H   0  0  0  0  0  0  0  0  0  0  0  0
   12.7857   -2.6355    0.0071 H   0  0  0  0  0  0  0  0  0  0  0  0
   10.8682   -1.1090    0.1982 H   0  0  0  0  0  0  0  0  0  0  0  0
    9.5731    1.0199   -3.7713 H   0  0  0  0  0  0  0  0  0  0  0  0
    8.7219    1.4073   -6.0332 H   0  0  0  0  0  0  0  0  0  0  0  0
  1  2  1  0  0  0  0
  1 31  1  0  0  0  0
  1 32  1  0  0  0  0
  1 33  1  0  0  0  0
  2  3  2  0  0  0  0
  2 30  1  0  0  0  0
  3  4  1  0  0  0  0
  3 34  1  0  0  0  0
  4  5  1  0  0  0  0
  4 29  1  0  0  0  0
  5  6  2  0  0  0  0
  5 35  1  0  0  0  0
  6  7  1  0  0  0  0
  6 27  1  0  0  0  0
  7  8  2  0  0  0  0
  7  9  1  0  0  0  0
  9 10  1  0  0  0  0
  9 36  1  0  0  0  0
 10 11  1  0  0  0  0
 10 37  1  0  0  0  0
 10 38  1  0  0  0  0
 11 12  2  0  0  0  0
 11 26  1  0  0  0  0
 12 13  1  0  0  0  0
 12 39  1  0  0  0  0
 13 14  2  0  0  0  0
 13 40  1  0  0  0  0
 14 15  1  0  0  0  0
 14 25  1  0  0  0  0
 15 16  1  0  0  0  0
 15 41  1  0  0  0  0
 16 17  2  0  0  0  0
 16 18  1  0  0  0  0
 18 19  2  0  0  0  0
 18 23  1  0  0  0  0
 19 20  1  0  0  0  0
 19 42  1  0  0  0  0
 20 21  2  0  0  0  0
 20 43  1  0  0  0  0
 21 22  1  0  0  0  0
 21 44  1  0  0  0  0
 22 23  2  0  0  0  0
 22 45  1  0  0  0  0
 23 24  1  0  0  0  0
 24 46  1  0  0  0  0
 25 26  2  0  0  0  0
 25 47  1  0  0  0  0
 26 48  1  0  0  0  0
 27 28  2  0  0  0  0
 27 49  1  0  0  0  0
 28 29  1  0  0  0  0
 28 50  1  0  0  0  0
 29 30  2  0  0  0  0
M  END
$$$$
