
 OpenBabel01122422423D

 54 56  0  0  0  0  0  0  0  0999 V2000
    2.0051    0.0533   -1.2728 C   0  0  0  0  0  0  0  0  0  0  0  0
    2.5212   -0.0970    0.0564 O   0  0  0  0  0  0  0  0  0  0  0  0
    3.2463   -1.2485    0.2637 C   0  0  0  0  0  0  0  0  0  0  0  0
    2.8488   -2.4689   -0.3085 C   0  0  0  0  0  0  0  0  0  0  0  0
    3.6147   -3.6192   -0.1172 C   0  0  0  0  0  0  0  0  0  0  0  0
    3.2497   -4.9277   -0.7022 C   0  0  0  0  0  0  0  0  0  0  0  0
    4.0736   -5.8189   -0.8747 O   0  0  0  0  0  0  0  0  0  0  0  0
    1.9262   -5.0029   -0.9569 O   0  0  0  0  0  0  0  0  0  0  0  0
    1.4810   -6.2388   -1.5368 C   0  0  0  0  0  0  0  0  0  0  0  0
    0.5431   -6.9483   -0.5984 C   0  0  0  0  0  0  0  0  0  0  0  0
    0.9551   -7.3424    0.6806 C   0  0  0  0  0  0  0  0  0  0  0  0
    0.0773   -8.0335    1.5235 C   0  0  0  0  0  0  0  0  0  0  0  0
   -1.2241   -8.3497    1.1028 C   0  0  0  0  0  0  0  0  0  0  0  0
   -2.1043   -9.0887    2.0524 C   0  0  0  0  0  0  0  0  0  0  0  0
   -3.3778   -9.3975    1.6649 N   0  0  0  0  0  0  0  0  0  0  0  0
   -1.7078   -9.4190    3.1641 O   0  0  0  0  0  0  0  0  0  0  0  0
   -1.6320   -7.9692   -0.1776 C   0  0  0  0  0  0  0  0  0  0  0  0
   -0.7493   -7.2810   -1.0085 C   0  0  0  0  0  0  0  0  0  0  0  0
   -1.1657   -6.9467   -2.2384 F   0  0  0  0  0  0  0  0  0  0  0  0
    4.7947   -3.5527    0.6223 C   0  0  0  0  0  0  0  0  0  0  0  0
    5.1909   -2.3562    1.2203 C   0  0  0  0  0  0  0  0  0  0  0  0
    6.3426   -2.2960    1.9601 O   0  0  0  0  0  0  0  0  0  0  0  0
    7.4401   -3.0867    1.5284 C   0  0  0  0  0  0  0  0  0  0  0  0
    4.3728   -1.2057    1.1193 C   0  0  0  0  0  0  0  0  0  0  0  0
    4.5995   -0.0198    1.8035 O   0  0  0  0  0  0  0  0  0  0  0  0
    5.3976   -0.1467    2.9945 C   0  0  0  0  0  0  0  0  0  0  0  0
    5.2067    0.9328    4.0338 C   0  0  0  0  0  0  0  0  0  0  0  0
    4.0302    1.6810    4.1147 C   0  0  0  0  0  0  0  0  0  0  0  0
    3.8330    2.5623    5.1771 C   0  0  0  0  0  0  0  0  0  0  0  0
    4.8018    2.7019    6.1708 C   0  0  0  0  0  0  0  0  0  0  0  0
    5.9798    1.9625    6.1010 C   0  0  0  0  0  0  0  0  0  0  0  0
    6.1813    1.0817    5.0398 C   0  0  0  0  0  0  0  0  0  0  0  0
    1.4977    1.0207   -1.3395 H   0  0  0  0  0  0  0  0  0  0  0  0
    1.2541   -0.7049   -1.5158 H   0  0  0  0  0  0  0  0  0  0  0  0
    2.8129    0.0414   -2.0137 H   0  0  0  0  0  0  0  0  0  0  0  0
    1.9333   -2.5412   -0.8845 H   0  0  0  0  0  0  0  0  0  0  0  0
    2.2993   -6.9169   -1.8054 H   0  0  0  0  0  0  0  0  0  0  0  0
    0.9758   -5.9754   -2.4718 H   0  0  0  0  0  0  0  0  0  0  0  0
    1.9634   -7.1239    1.0286 H   0  0  0  0  0  0  0  0  0  0  0  0
    0.4170   -8.3314    2.5153 H   0  0  0  0  0  0  0  0  0  0  0  0
   -3.7996   -9.1598    0.7821 H   0  0  0  0  0  0  0  0  0  0  0  0
   -3.9473   -9.8938    2.3389 H   0  0  0  0  0  0  0  0  0  0  0  0
   -2.6164   -8.1913   -0.5682 H   0  0  0  0  0  0  0  0  0  0  0  0
    5.3783   -4.4582    0.7588 H   0  0  0  0  0  0  0  0  0  0  0  0
    8.3393   -2.6751    1.9967 H   0  0  0  0  0  0  0  0  0  0  0  0
    7.5744   -3.0405    0.4434 H   0  0  0  0  0  0  0  0  0  0  0  0
    7.3262   -4.1174    1.8750 H   0  0  0  0  0  0  0  0  0  0  0  0
    6.4539   -0.1218    2.7007 H   0  0  0  0  0  0  0  0  0  0  0  0
    5.1418   -1.0723    3.5269 H   0  0  0  0  0  0  0  0  0  0  0  0
    3.2530    1.5559    3.3612 H   0  0  0  0  0  0  0  0  0  0  0  0
    2.9061    3.1304    5.2377 H   0  0  0  0  0  0  0  0  0  0  0  0
    4.6330    3.3769    7.0043 H   0  0  0  0  0  0  0  0  0  0  0  0
    6.7317    2.0588    6.8813 H   0  0  0  0  0  0  0  0  0  0  0  0
    7.0928    0.4862    5.0127 H   0  0  0  0  0  0  0  0  0  0  0  0
  1  2  1  0  0  0  0
  1 33  1  0  0  0  0
  1 34  1  0  0  0  0
  1 35  1  0  0  0  0
  2  3  1  0  0  0  0
  3  4  2  0  0  0  0
  3 24  1  0  0  0  0
  4  5  1  0  0  0  0
  4 36  1  0  0  0  0
  5  6  1  0  0  0  0
  5 20  2  0  0  0  0
  6  7  2  0  0  0  0
  6  8  1  0  0  0  0
  8  9  1  0  0  0  0
  9 10  1  0  0  0  0
  9 37  1  0  0  0  0
  9 38  1  0  0  0  0
 10 11  2  0  0  0  0
 10 18  1  0  0  0  0
 11 12  1  0  0  0  0
 11 39  1  0  0  0  0
 12 13  2  0  0  0  0
 12 40  1  0  0  0  0
 13 14  1  0  0  0  0
 13 17  1  0  0  0  0
 14 15  1  0  0  0  0
 14 16  2  0  0  0  0
 15 41  1  0  0  0  0
 15 42  1  0  0  0  0
 17 18  2  0  0  0  0
 17 43  1  0  0  0  0
 18 19  1  0  0  0  0
 20 21  1  0  0  0  0
 20 44  1  0  0  0  0
 21 22  1  0  0  0  0
 21 24  2  0  0  0  0
 22 23  1  0  0  0  0
 23 45  1  0  0  0  0
 23 46  1  0  0  0  0
 23 47  1  0  0  0  0
 24 25  1  0  0  0  0
 25 26  1  0  0  0  0
 26 27  1  0  0  0  0
 26 48  1  0  0  0  0
 26 49  1  0  0  0  0
 27 28  2  0  0  0  0
 27 32  1  0  0  0  0
 28 29  1  0  0  0  0
 28 50  1  0  0  0  0
 29 30  2  0  0  0  0
 29 51  1  0  0  0  0
 30 31  1  0  0  0  0
 30 52  1  0  0  0  0
 31 32  2  0  0  0  0
 31 53  1  0  0  0  0
 32 54  1  0  0  0  0
M  END
$$$$
