
 OpenBabel01122422423D

 49 52  0  0  0  0  0  0  0  0999 V2000
    1.0435   -0.0005   -0.0606 C   0  0  0  0  0  0  0  0  0  0  0  0
    2.4528   -0.1314    0.2408 N   0  0  0  0  0  0  0  0  0  0  0  0
    3.1805    0.9483    0.7425 C   0  0  0  0  0  0  0  0  0  0  0  0
    2.6787    2.0486    0.9864 O   0  0  0  0  0  0  0  0  0  0  0  0
    4.6438    0.7563    1.0480 C   0  0  0  0  0  0  0  0  0  0  0  0
    5.5205    1.8300    1.0116 C   0  0  0  0  0  0  0  0  0  0  0  0
    6.8796    1.5850    1.2612 C   0  0  0  0  0  0  0  0  0  0  0  0
    7.3463    0.2960    1.5472 C   0  0  0  0  0  0  0  0  0  0  0  0
    8.7672   -0.0230    1.7733 C   0  0  0  0  0  0  0  0  0  0  0  0
    9.3234   -1.2586    1.3957 C   0  0  0  0  0  0  0  0  0  0  0  0
   10.6645   -1.5429    1.6431 C   0  0  0  0  0  0  0  0  0  0  0  0
   11.4363   -0.5755    2.2561 C   0  0  0  0  0  0  0  0  0  0  0  0
   10.9604    0.6285    2.6323 N   0  0  0  0  0  0  0  0  0  0  0  0
    9.6479    0.8681    2.3881 C   0  0  0  0  0  0  0  0  0  0  0  0
    6.3628   -0.6891    1.6090 C   0  0  0  0  0  0  0  0  0  0  0  0
    5.0457   -0.4890    1.3806 N   0  0  0  0  0  0  0  0  0  0  0  0
    3.1052   -1.1542   -0.4602 C   0  0  0  0  0  0  0  0  0  0  0  0
    3.2229   -2.3494    0.1414 N   0  0  0  0  0  0  0  0  0  0  0  0
    3.9524   -3.2762   -0.5105 C   0  0  0  0  0  0  0  0  0  0  0  0
    4.4503   -3.1075   -1.7828 C   0  0  0  0  0  0  0  0  0  0  0  0
    5.1000   -4.1516   -2.3606 O   0  0  0  0  0  0  0  0  0  0  0  0
    5.0341   -4.1738   -3.7870 C   0  0  0  0  0  0  0  0  0  0  0  0
    5.2643   -5.5836   -4.2624 C   0  0  0  0  0  0  0  0  0  0  0  0
    4.1996   -6.4964   -4.2929 C   0  0  0  0  0  0  0  0  0  0  0  0
    4.3955   -7.7950   -4.7631 C   0  0  0  0  0  0  0  0  0  0  0  0
    5.6572   -8.1951   -5.1962 C   0  0  0  0  0  0  0  0  0  0  0  0
    6.7272   -7.3033   -5.1469 C   0  0  0  0  0  0  0  0  0  0  0  0
    6.5347   -6.0034   -4.6770 C   0  0  0  0  0  0  0  0  0  0  0  0
    4.2197   -1.8640   -2.3304 C   0  0  0  0  0  0  0  0  0  0  0  0
    3.5699   -0.8689   -1.6913 N   0  0  0  0  0  0  0  0  0  0  0  0
    0.6368    0.9462    0.3063 H   0  0  0  0  0  0  0  0  0  0  0  0
    0.5068   -0.8234    0.4225 H   0  0  0  0  0  0  0  0  0  0  0  0
    0.8779   -0.0483   -1.1430 H   0  0  0  0  0  0  0  0  0  0  0  0
    5.1629    2.8275    0.7842 H   0  0  0  0  0  0  0  0  0  0  0  0
    7.5684    2.4303    1.1962 H   0  0  0  0  0  0  0  0  0  0  0  0
    8.7246   -2.0145    0.8979 H   0  0  0  0  0  0  0  0  0  0  0  0
   11.0956   -2.4994    1.3626 H   0  0  0  0  0  0  0  0  0  0  0  0
   12.4863   -0.7457    2.4689 H   0  0  0  0  0  0  0  0  0  0  0  0
    9.3133    1.8436    2.7379 H   0  0  0  0  0  0  0  0  0  0  0  0
    6.6026   -1.7213    1.8536 H   0  0  0  0  0  0  0  0  0  0  0  0
    4.1234   -4.1963    0.0385 H   0  0  0  0  0  0  0  0  0  0  0  0
    5.7948   -3.5021   -4.2031 H   0  0  0  0  0  0  0  0  0  0  0  0
    4.0493   -3.8488   -4.1500 H   0  0  0  0  0  0  0  0  0  0  0  0
    3.2093   -6.1974   -3.9546 H   0  0  0  0  0  0  0  0  0  0  0  0
    3.5620   -8.4930   -4.7936 H   0  0  0  0  0  0  0  0  0  0  0  0
    5.8079   -9.2049   -5.5677 H   0  0  0  0  0  0  0  0  0  0  0  0
    7.7133   -7.6207   -5.4770 H   0  0  0  0  0  0  0  0  0  0  0  0
    7.3802   -5.3201   -4.6429 H   0  0  0  0  0  0  0  0  0  0  0  0
    4.5627   -1.5965   -3.3251 H   0  0  0  0  0  0  0  0  0  0  0  0
  1  2  1  0  0  0  0
  1 31  1  0  0  0  0
  1 32  1  0  0  0  0
  1 33  1  0  0  0  0
  2  3  1  0  0  0  0
  2 17  1  0  0  0  0
  3  4  2  0  0  0  0
  3  5  1  0  0  0  0
  5  6  2  0  0  0  0
  5 16  1  0  0  0  0
  6  7  1  0  0  0  0
  6 34  1  0  0  0  0
  7  8  2  0  0  0  0
  7 35  1  0  0  0  0
  8  9  1  0  0  0  0
  8 15  1  0  0  0  0
  9 10  2  0  0  0  0
  9 14  1  0  0  0  0
 10 11  1  0  0  0  0
 10 36  1  0  0  0  0
 11 12  2  0  0  0  0
 11 37  1  0  0  0  0
 12 13  1  0  0  0  0
 12 38  1  0  0  0  0
 13 14  2  0  0  0  0
 14 39  1  0  0  0  0
 15 16  2  0  0  0  0
 15 40  1  0  0  0  0
 17 18  2  0  0  0  0
 17 30  1  0  0  0  0
 18 19  1  0  0  0  0
 19 20  2  0  0  0  0
 19 41  1  0  0  0  0
 20 21  1  0  0  0  0
 20 29  1  0  0  0  0
 21 22  1  0  0  0  0
 22 23  1  0  0  0  0
 22 42  1  0  0  0  0
 22 43  1  0  0  0  0
 23 24  2  0  0  0  0
 23 28  1  0  0  0  0
 24 25  1  0  0  0  0
 24 44  1  0  0  0  0
 25 26  2  0  0  0  0
 25 45  1  0  0  0  0
 26 27  1  0  0  0  0
 26 46  1  0  0  0  0
 27 28  2  0  0  0  0
 27 47  1  0  0  0  0
 28 48  1  0  0  0  0
 29 30  2  0  0  0  0
 29 49  1  0  0  0  0
M  END
$$$$
