
 OpenBabel01122422423D

 53 56  0  0  0  0  0  0  0  0999 V2000
    2.0381    0.1373    1.0786 C   0  0  0  0  0  0  0  0  0  0  0  0
    2.6646   -0.2256   -0.1446 O   0  0  0  0  0  0  0  0  0  0  0  0
    3.0759    0.8125   -0.9328 C   0  0  0  0  0  0  0  0  0  0  0  0
    3.4203    2.0891   -0.4799 C   0  0  0  0  0  0  0  0  0  0  0  0
    3.8902    3.0616   -1.3745 C   0  0  0  0  0  0  0  0  0  0  0  0
    4.0167    2.7549   -2.7319 C   0  0  0  0  0  0  0  0  0  0  0  0
    4.6194    3.6720   -3.7321 C   0  0  0  0  0  0  0  0  0  0  0  0
    5.1423    3.1480   -4.7093 O   0  0  0  0  0  0  0  0  0  0  0  0
    4.5891    5.0436   -3.4784 N   0  0  0  0  0  0  0  0  0  0  0  0
    5.1085    6.0424   -4.3559 C   0  0  0  0  0  0  0  0  0  0  0  0
    5.3635    5.7437   -5.7061 C   0  0  0  0  0  0  0  0  0  0  0  0
    5.8555    6.7063   -6.5813 C   0  0  0  0  0  0  0  0  0  0  0  0
    6.0822    6.3793   -7.8608 F   0  0  0  0  0  0  0  0  0  0  0  0
    6.0996    7.9958   -6.1516 C   0  0  0  0  0  0  0  0  0  0  0  0
    5.8315    8.3290   -4.8257 C   0  0  0  0  0  0  0  0  0  0  0  0
    5.3386    7.3655   -3.9189 C   0  0  0  0  0  0  0  0  0  0  0  0
    5.0804    7.8707   -2.5409 C   0  0  0  0  0  0  0  0  0  0  0  0
    4.6453    9.0078   -2.3909 O   0  0  0  0  0  0  0  0  0  0  0  0
    5.3851    7.0336   -1.4880 N   0  0  0  0  0  0  0  0  0  0  0  0
    5.3250    7.5283   -0.1206 C   0  0  0  0  0  0  0  0  0  0  0  0
    6.6841    7.9510    0.3257 C   0  0  0  0  0  0  0  0  0  0  0  0
    7.3005    9.1815    0.2224 C   0  0  0  0  0  0  0  0  0  0  0  0
    6.9537   10.4604   -0.2974 C   0  0  0  0  0  0  0  0  0  0  0  0
    7.8656   11.4515   -0.2815 C   0  0  0  0  0  0  0  0  0  0  0  0
    9.2004   11.2472    0.2560 C   0  0  0  0  0  0  0  0  0  0  0  0
    9.5152   10.0511    0.7819 C   0  0  0  0  0  0  0  0  0  0  0  0
    8.5658    9.0248    0.7769 N   0  0  0  0  0  0  0  0  0  0  0  0
    8.6211    7.7293    1.2644 C   0  0  0  0  0  0  0  0  0  0  0  0
    9.7578    7.1792    2.0484 C   0  0  0  0  0  0  0  0  0  0  0  0
    7.5201    7.0591    0.9673 N   0  0  0  0  0  0  0  0  0  0  0  0
    3.6612    1.4719   -3.1801 C   0  0  0  0  0  0  0  0  0  0  0  0
    3.2023    0.5065   -2.2851 C   0  0  0  0  0  0  0  0  0  0  0  0
    1.6875   -0.7811    1.5586 H   0  0  0  0  0  0  0  0  0  0  0  0
    1.1684    0.7761    0.8924 H   0  0  0  0  0  0  0  0  0  0  0  0
    2.7423    0.6173    1.7646 H   0  0  0  0  0  0  0  0  0  0  0  0
    3.3792    2.3439    0.5737 H   0  0  0  0  0  0  0  0  0  0  0  0
    4.1991    4.0208   -0.9749 H   0  0  0  0  0  0  0  0  0  0  0  0
    4.1983    5.3756   -2.6041 H   0  0  0  0  0  0  0  0  0  0  0  0
    5.1539    4.7728   -6.1412 H   0  0  0  0  0  0  0  0  0  0  0  0
    6.4832    8.7320   -6.8503 H   0  0  0  0  0  0  0  0  0  0  0  0
    6.0136    9.3494   -4.4924 H   0  0  0  0  0  0  0  0  0  0  0  0
    6.0173    6.2595   -1.6551 H   0  0  0  0  0  0  0  0  0  0  0  0
    4.9652    6.7050    0.5048 H   0  0  0  0  0  0  0  0  0  0  0  0
    4.6112    8.3544   -0.0350 H   0  0  0  0  0  0  0  0  0  0  0  0
    5.9587   10.6265   -0.7010 H   0  0  0  0  0  0  0  0  0  0  0  0
    7.6200   12.4345   -0.6722 H   0  0  0  0  0  0  0  0  0  0  0  0
    9.9106   12.0663    0.2232 H   0  0  0  0  0  0  0  0  0  0  0  0
   10.4910    9.8462    1.1995 H   0  0  0  0  0  0  0  0  0  0  0  0
   10.6172    7.8512    2.0988 H   0  0  0  0  0  0  0  0  0  0  0  0
   10.0964    6.2368    1.6079 H   0  0  0  0  0  0  0  0  0  0  0  0
    9.4332    6.9779    3.0748 H   0  0  0  0  0  0  0  0  0  0  0  0
    3.7695    1.2055   -4.2309 H   0  0  0  0  0  0  0  0  0  0  0  0
    2.9587   -0.4906   -2.6445 H   0  0  0  0  0  0  0  0  0  0  0  0
  1  2  1  0  0  0  0
  1 33  1  0  0  0  0
  1 34  1  0  0  0  0
  1 35  1  0  0  0  0
  2  3  1  0  0  0  0
  3  4  2  0  0  0  0
  3 32  1  0  0  0  0
  4  5  1  0  0  0  0
  4 36  1  0  0  0  0
  5  6  2  0  0  0  0
  5 37  1  0  0  0  0
  6  7  1  0  0  0  0
  6 31  1  0  0  0  0
  7  8  2  0  0  0  0
  7  9  1  0  0  0  0
  9 10  1  0  0  0  0
  9 38  1  0  0  0  0
 10 11  2  0  0  0  0
 10 16  1  0  0  0  0
 11 12  1  0  0  0  0
 11 39  1  0  0  0  0
 12 13  1  0  0  0  0
 12 14  2  0  0  0  0
 14 15  1  0  0  0  0
 14 40  1  0  0  0  0
 15 16  2  0  0  0  0
 15 41  1  0  0  0  0
 16 17  1  0  0  0  0
 17 18  2  0  0  0  0
 17 19  1  0  0  0  0
 19 20  1  0  0  0  0
 19 42  1  0  0  0  0
 20 21  1  0  0  0  0
 20 43  1  0  0  0  0
 20 44  1  0  0  0  0
 21 22  2  0  0  0  0
 21 30  1  0  0  0  0
 22 23  1  0  0  0  0
 22 27  1  0  0  0  0
 23 24  2  0  0  0  0
 23 45  1  0  0  0  0
 24 25  1  0  0  0  0
 24 46  1  0  0  0  0
 25 26  2  0  0  0  0
 25 47  1  0  0  0  0
 26 27  1  0  0  0  0
 26 48  1  0  0  0  0
 27 28  1  0  0  0  0
 28 29  1  0  0  0  0
 28 30  2  0  0  0  0
 29 49  1  0  0  0  0
 29 50  1  0  0  0  0
 29 51  1  0  0  0  0
 31 32  2  0  0  0  0
 31 52  1  0  0  0  0
 32 53  1  0  0  0  0
M  END
$$$$
