
 OpenBabel01122422423D

 42 45  0  0  0  0  0  0  0  0999 V2000
    1.1024   -0.4965    0.0291 O   0  0  0  0  0  0  0  0  0  0  0  0
    2.2433   -0.0384   -0.0003 C   0  0  0  0  0  0  0  0  0  0  0  0
    2.8348    0.6957    1.0099 N   0  0  0  0  0  0  0  0  0  0  0  0
    2.2694    0.9800    2.2753 C   0  0  0  0  0  0  0  0  0  0  0  0
    1.1480    0.3065    2.7726 C   0  0  0  0  0  0  0  0  0  0  0  0
    0.6278    0.5456    4.0570 C   0  0  0  0  0  0  0  0  0  0  0  0
   -0.4483   -0.3061    4.6166 C   0  0  0  0  0  0  0  0  0  0  0  0
   -0.5039   -1.6823    4.3169 C   0  0  0  0  0  0  0  0  0  0  0  0
   -1.4557   -2.5227    4.8980 C   0  0  0  0  0  0  0  0  0  0  0  0
   -2.3746   -2.0063    5.8033 C   0  0  0  0  0  0  0  0  0  0  0  0
   -2.3560   -0.6478    6.1058 C   0  0  0  0  0  0  0  0  0  0  0  0
   -1.4101    0.1945    5.5105 C   0  0  0  0  0  0  0  0  0  0  0  0
    1.2304    1.5604    4.8138 C   0  0  0  0  0  0  0  0  0  0  0  0
    2.3543    2.2616    4.3438 C   0  0  0  0  0  0  0  0  0  0  0  0
    3.0063    3.3148    5.2046 C   0  0  0  0  0  0  0  0  0  0  0  0
    2.3890    3.4963    6.4066 F   0  0  0  0  0  0  0  0  0  0  0  0
    4.3029    3.0180    5.4955 F   0  0  0  0  0  0  0  0  0  0  0  0
    3.0259    4.5394    4.6102 F   0  0  0  0  0  0  0  0  0  0  0  0
    2.8815    1.9451    3.0787 C   0  0  0  0  0  0  0  0  0  0  0  0
    3.0664   -0.2411   -1.2323 C   0  0  0  0  0  0  0  0  0  0  0  0
    2.4456   -0.8219   -2.2803 C   0  0  0  0  0  0  0  0  0  0  0  0
    3.1187   -1.0524   -3.4605 N   0  0  0  0  0  0  0  0  0  0  0  0
    4.4476   -0.7358   -3.6736 C   0  0  0  0  0  0  0  0  0  0  0  0
    4.9893   -0.9701   -4.7477 O   0  0  0  0  0  0  0  0  0  0  0  0
    5.1000   -0.1294   -2.5438 C   0  0  0  0  0  0  0  0  0  0  0  0
    6.3938    0.2950   -2.3605 C   0  0  0  0  0  0  0  0  0  0  0  0
    6.4139    0.7936   -1.0509 C   0  0  0  0  0  0  0  0  0  0  0  0
    5.2243    0.7148   -0.4467 N   0  0  0  0  0  0  0  0  0  0  0  0
    4.4066    0.1145   -1.3648 N   0  0  0  0  0  0  0  0  0  0  0  0
    3.7627    1.0816    0.8237 H   0  0  0  0  0  0  0  0  0  0  0  0
    0.6742   -0.4663    2.1761 H   0  0  0  0  0  0  0  0  0  0  0  0
    0.2194   -2.1305    3.6382 H   0  0  0  0  0  0  0  0  0  0  0  0
   -1.4632   -3.5810    4.6509 H   0  0  0  0  0  0  0  0  0  0  0  0
   -3.1015   -2.6624    6.2736 H   0  0  0  0  0  0  0  0  0  0  0  0
   -3.0739   -0.2405    6.8128 H   0  0  0  0  0  0  0  0  0  0  0  0
   -1.4335    1.2519    5.7634 H   0  0  0  0  0  0  0  0  0  0  0  0
    0.8522    1.7850    5.8108 H   0  0  0  0  0  0  0  0  0  0  0  0
    3.7655    2.4739    2.7254 H   0  0  0  0  0  0  0  0  0  0  0  0
    1.4019   -1.1304   -2.2610 H   0  0  0  0  0  0  0  0  0  0  0  0
    2.6380   -1.4852   -4.2436 H   0  0  0  0  0  0  0  0  0  0  0  0
    7.2028    0.2403   -3.0755 H   0  0  0  0  0  0  0  0  0  0  0  0
    7.2509    1.2210   -0.5111 H   0  0  0  0  0  0  0  0  0  0  0  0
  1  2  2  0  0  0  0
  2  3  1  0  0  0  0
  2 20  1  0  0  0  0
  3  4  1  0  0  0  0
  3 30  1  0  0  0  0
  4  5  2  0  0  0  0
  4 19  1  0  0  0  0
  5  6  1  0  0  0  0
  5 31  1  0  0  0  0
  6  7  1  0  0  0  0
  6 13  2  0  0  0  0
  7  8  2  0  0  0  0
  7 12  1  0  0  0  0
  8  9  1  0  0  0  0
  8 32  1  0  0  0  0
  9 10  2  0  0  0  0
  9 33  1  0  0  0  0
 10 11  1  0  0  0  0
 10 34  1  0  0  0  0
 11 12  2  0  0  0  0
 11 35  1  0  0  0  0
 12 36  1  0  0  0  0
 13 14  1  0  0  0  0
 13 37  1  0  0  0  0
 14 15  1  0  0  0  0
 14 19  2  0  0  0  0
 15 16  1  0  0  0  0
 15 17  1  0  0  0  0
 15 18  1  0  0  0  0
 19 38  1  0  0  0  0
 20 21  2  0  0  0  0
 20 29  1  0  0  0  0
 21 22  1  0  0  0  0
 21 39  1  0  0  0  0
 22 23  1  0  0  0  0
 22 40  1  0  0  0  0
 23 24  2  0  0  0  0
 23 25  1  0  0  0  0
 25 26  2  0  0  0  0
 25 29  1  0  0  0  0
 26 27  1  0  0  0  0
 26 41  1  0  0  0  0
 27 28  2  0  0  0  0
 27 42  1  0  0  0  0
 28 29  1  0  0  0  0
M  END
$$$$
