
 OpenBabel01122422423D

 49 52  0  0  1  0  0  0  0  0999 V2000
    2.8924   -0.9359    0.6545 C   0  0  0  0  0  0  0  0  0  0  0  0
    2.2590    0.2777   -0.0326 C   0  0  3  0  0  0  0  0  0  0  0  0
    2.7563    0.4407   -1.3992 N   0  0  0  0  0  0  0  0  0  0  0  0
    2.4565   -0.4645   -2.3824 C   0  0  0  0  0  0  0  0  0  0  0  0
    1.6875   -1.4030   -2.2119 O   0  0  0  0  0  0  0  0  0  0  0  0
    3.1045   -0.2031   -3.5674 N   0  0  0  0  0  0  0  0  0  0  0  0
    2.9068   -1.0709   -4.6663 C   0  0  0  0  0  0  0  0  0  0  0  0
    1.6393   -1.5154   -5.0437 C   0  0  0  0  0  0  0  0  0  0  0  0
    1.5122   -2.4576   -6.0595 C   0  0  0  0  0  0  0  0  0  0  0  0
    2.6682   -2.9083   -6.6710 C   0  0  0  0  0  0  0  0  0  0  0  0
    2.5088   -3.8570   -7.6777 O   0  0  0  0  0  0  0  0  0  0  0  0
    3.4734   -3.9045   -8.6559 C   0  0  0  0  0  0  0  0  0  0  0  0
    4.0637   -2.7566   -9.1994 C   0  0  0  0  0  0  0  0  0  0  0  0
    5.0323   -2.8631  -10.1999 C   0  0  0  0  0  0  0  0  0  0  0  0
    5.3834   -4.1201  -10.6905 C   0  0  0  0  0  0  0  0  0  0  0  0
    4.7620   -5.2571  -10.1750 C   0  0  0  0  0  0  0  0  0  0  0  0
    5.0973   -6.4597  -10.6695 F   0  0  0  0  0  0  0  0  0  0  0  0
    3.8113   -5.1542   -9.1636 C   0  0  0  0  0  0  0  0  0  0  0  0
    3.2269   -6.2651   -8.6877 F   0  0  0  0  0  0  0  0  0  0  0  0
    3.9134   -2.4832   -6.3444 N   0  0  0  0  0  0  0  0  0  0  0  0
    4.0026   -1.5628   -5.3630 C   0  0  0  0  0  0  0  0  0  0  0  0
    0.7616    0.2375    0.0212 C   0  0  0  0  0  0  0  0  0  0  0  0
    0.0261   -0.8588    0.1045 N   0  0  0  0  0  0  0  0  0  0  0  0
   -1.2475   -0.4626    0.3774 N   0  0  0  0  0  0  0  0  0  0  0  0
   -1.3123    0.8496    0.5133 N   0  0  0  0  0  0  0  0  0  0  0  0
   -0.0798    1.3244    0.2069 N   0  0  0  0  0  0  0  0  0  0  0  0
    0.1555    2.7210    0.1640 C   0  0  0  0  0  0  0  0  0  0  0  0
   -0.6836    3.5693    0.9044 C   0  0  0  0  0  0  0  0  0  0  0  0
   -0.4752    4.9495    0.8908 C   0  0  0  0  0  0  0  0  0  0  0  0
    0.5504    5.4938    0.1228 C   0  0  0  0  0  0  0  0  0  0  0  0
    1.3677    4.6602   -0.6384 C   0  0  0  0  0  0  0  0  0  0  0  0
    1.1721    3.2765   -0.6204 C   0  0  0  0  0  0  0  0  0  0  0  0
    3.9758   -0.8030    0.7424 H   0  0  0  0  0  0  0  0  0  0  0  0
    2.7245   -1.8658    0.1007 H   0  0  0  0  0  0  0  0  0  0  0  0
    2.4855   -1.0756    1.6633 H   0  0  0  0  0  0  0  0  0  0  0  0
    2.6083    1.1590    0.5179 H   0  0  0  0  0  0  0  0  0  0  0  0
    3.6033    0.9741   -1.5132 H   0  0  0  0  0  0  0  0  0  0  0  0
    4.0182    0.2078   -3.4772 H   0  0  0  0  0  0  0  0  0  0  0  0
    0.7453   -1.1513   -4.5413 H   0  0  0  0  0  0  0  0  0  0  0  0
    0.5399   -2.8310   -6.3545 H   0  0  0  0  0  0  0  0  0  0  0  0
    3.7951   -1.7658   -8.8310 H   0  0  0  0  0  0  0  0  0  0  0  0
    5.5082   -1.9670  -10.5885 H   0  0  0  0  0  0  0  0  0  0  0  0
    6.1267   -4.2204  -11.4697 H   0  0  0  0  0  0  0  0  0  0  0  0
    5.0159   -1.2692   -5.1110 H   0  0  0  0  0  0  0  0  0  0  0  0
   -1.4904    3.1704    1.5160 H   0  0  0  0  0  0  0  0  0  0  0  0
   -1.1201    5.5991    1.4785 H   0  0  0  0  0  0  0  0  0  0  0  0
    0.7014    6.5704    0.1026 H   0  0  0  0  0  0  0  0  0  0  0  0
    2.1445    5.0917   -1.2643 H   0  0  0  0  0  0  0  0  0  0  0  0
    1.7810    2.6788   -1.2841 H   0  0  0  0  0  0  0  0  0  0  0  0
  1  2  1  0  0  0  0
  1 33  1  0  0  0  0
  1 34  1  0  0  0  0
  1 35  1  0  0  0  0
  2  3  1  0  0  0  0
  2 22  1  0  0  0  0
  2 36  1  0  0  0  0
  3  4  1  0  0  0  0
  3 37  1  0  0  0  0
  4  5  2  0  0  0  0
  4  6  1  0  0  0  0
  6  7  1  0  0  0  0
  6 38  1  0  0  0  0
  7  8  2  0  0  0  0
  7 21  1  0  0  0  0
  8  9  1  0  0  0  0
  8 39  1  0  0  0  0
  9 10  2  0  0  0  0
  9 40  1  0  0  0  0
 10 11  1  0  0  0  0
 10 20  1  0  0  0  0
 11 12  1  0  0  0  0
 12 13  2  0  0  0  0
 12 18  1  0  0  0  0
 13 14  1  0  0  0  0
 13 41  1  0  0  0  0
 14 15  2  0  0  0  0
 14 42  1  0  0  0  0
 15 16  1  0  0  0  0
 15 43  1  0  0  0  0
 16 17  1  0  0  0  0
 16 18  2  0  0  0  0
 18 19  1  0  0  0  0
 20 21  2  0  0  0  0
 21 44  1  0  0  0  0
 22 23  2  0  0  0  0
 22 26  1  0  0  0  0
 23 24  1  0  0  0  0
 24 25  2  0  0  0  0
 25 26  1  0  0  0  0
 26 27  1  0  0  0  0
 27 28  2  0  0  0  0
 27 32  1  0  0  0  0
 28 29  1  0  0  0  0
 28 45  1  0  0  0  0
 29 30  2  0  0  0  0
 29 46  1  0  0  0  0
 30 31  1  0  0  0  0
 30 47  1  0  0  0  0
 31 32  2  0  0  0  0
 31 48  1  0  0  0  0
 32 49  1  0  0  0  0
M  END
$$$$
