
 OpenBabel01122422423D

 47 50  0  0  0  0  0  0  0  0999 V2000
    2.0795   -1.0662   -0.5545 O   0  0  0  0  0  0  0  0  0  0  0  0
    2.4248   -0.0887    0.1086 C   0  0  0  0  0  0  0  0  0  0  0  0
    3.0977    1.0961   -0.5828 C   0  0  0  0  0  0  0  0  0  0  0  0
    2.1137    1.9914   -1.1711 N   0  0  0  0  0  0  0  0  0  0  0  0
    1.6721    3.0888   -0.4728 C   0  0  0  0  0  0  0  0  0  0  0  0
    2.0714    3.3539    0.6603 O   0  0  0  0  0  0  0  0  0  0  0  0
    0.7201    4.0082   -1.1264 C   0  0  0  0  0  0  0  0  0  0  0  0
    0.7109    5.3678   -0.8014 C   0  0  0  0  0  0  0  0  0  0  0  0
    1.6131    5.8972    0.0957 O   0  0  0  0  0  0  0  0  0  0  0  0
   -0.2365    6.2373   -1.3743 C   0  0  0  0  0  0  0  0  0  0  0  0
   -0.3000    7.6159   -1.0729 C   0  0  0  0  0  0  0  0  0  0  0  0
   -1.2986    8.4207   -1.6159 C   0  0  0  0  0  0  0  0  0  0  0  0
   -2.2348    7.8599   -2.4743 C   0  0  0  0  0  0  0  0  0  0  0  0
   -2.1564    6.5016   -2.7974 C   0  0  0  0  0  0  0  0  0  0  0  0
   -1.1743    5.6752   -2.2653 C   0  0  0  0  0  0  0  0  0  0  0  0
   -1.1641    4.3695   -2.5968 N   0  0  0  0  0  0  0  0  0  0  0  0
   -0.2341    3.5664   -2.0237 C   0  0  0  0  0  0  0  0  0  0  0  0
    2.1748    0.1094    1.4580 N   0  0  0  0  0  0  0  0  0  0  0  0
    1.6490   -0.8598    2.3468 C   0  0  0  0  0  0  0  0  0  0  0  0
    1.6463   -2.2270    2.0554 C   0  0  0  0  0  0  0  0  0  0  0  0
    1.0605   -3.1442    2.9288 C   0  0  0  0  0  0  0  0  0  0  0  0
    0.4701   -2.7027    4.1095 C   0  0  0  0  0  0  0  0  0  0  0  0
    0.4871   -1.3413    4.4440 C   0  0  0  0  0  0  0  0  0  0  0  0
   -0.1800   -0.8721    5.6552 C   0  0  0  0  0  0  0  0  0  0  0  0
   -0.8349   -1.6775    6.5090 N   0  0  0  0  0  0  0  0  0  0  0  0
   -1.3785   -0.8053    7.4466 O   0  0  0  0  0  0  0  0  0  0  0  0
   -0.9958    0.4489    7.0786 C   0  0  0  0  0  0  0  0  0  0  0  0
   -1.4977    1.5600    7.9152 C   0  0  0  0  0  0  0  0  0  0  0  0
   -2.8582    1.6270    7.8962 F   0  0  0  0  0  0  0  0  0  0  0  0
   -1.1444    1.4107    9.2220 F   0  0  0  0  0  0  0  0  0  0  0  0
   -0.2440    0.4639    5.9944 N   0  0  0  0  0  0  0  0  0  0  0  0
    1.1059   -0.4293    3.5658 C   0  0  0  0  0  0  0  0  0  0  0  0
    3.7251    0.7102   -1.3930 H   0  0  0  0  0  0  0  0  0  0  0  0
    3.7439    1.6311    0.1196 H   0  0  0  0  0  0  0  0  0  0  0  0
    1.8150    1.7977   -2.1150 H   0  0  0  0  0  0  0  0  0  0  0  0
    2.0324    5.1572    0.5866 H   0  0  0  0  0  0  0  0  0  0  0  0
    0.4287    8.0595   -0.3966 H   0  0  0  0  0  0  0  0  0  0  0  0
   -1.3483    9.4759   -1.3602 H   0  0  0  0  0  0  0  0  0  0  0  0
   -3.0295    8.4725   -2.8923 H   0  0  0  0  0  0  0  0  0  0  0  0
   -2.8943    6.0725   -3.4714 H   0  0  0  0  0  0  0  0  0  0  0  0
   -0.3226    2.5216   -2.3064 H   0  0  0  0  0  0  0  0  0  0  0  0
    2.2095    1.0721    1.7861 H   0  0  0  0  0  0  0  0  0  0  0  0
    2.0992   -2.6143    1.1474 H   0  0  0  0  0  0  0  0  0  0  0  0
    1.0489   -4.2014    2.6748 H   0  0  0  0  0  0  0  0  0  0  0  0
   -0.0139   -3.4313    4.7580 H   0  0  0  0  0  0  0  0  0  0  0  0
   -1.1085    2.5203    7.5671 H   0  0  0  0  0  0  0  0  0  0  0  0
    1.1194    0.6277    3.8231 H   0  0  0  0  0  0  0  0  0  0  0  0
  1  2  2  0  0  0  0
  2  3  1  0  0  0  0
  2 18  1  0  0  0  0
  3  4  1  0  0  0  0
  3 33  1  0  0  0  0
  3 34  1  0  0  0  0
  4  5  1  0  0  0  0
  4 35  1  0  0  0  0
  5  6  2  0  0  0  0
  5  7  1  0  0  0  0
  7  8  2  0  0  0  0
  7 17  1  0  0  0  0
  8  9  1  0  0  0  0
  8 10  1  0  0  0  0
  9 36  1  0  0  0  0
 10 11  2  0  0  0  0
 10 15  1  0  0  0  0
 11 12  1  0  0  0  0
 11 37  1  0  0  0  0
 12 13  2  0  0  0  0
 12 38  1  0  0  0  0
 13 14  1  0  0  0  0
 13 39  1  0  0  0  0
 14 15  2  0  0  0  0
 14 40  1  0  0  0  0
 15 16  1  0  0  0  0
 16 17  2  0  0  0  0
 17 41  1  0  0  0  0
 18 19  1  0  0  0  0
 18 42  1  0  0  0  0
 19 20  2  0  0  0  0
 19 32  1  0  0  0  0
 20 21  1  0  0  0  0
 20 43  1  0  0  0  0
 21 22  2  0  0  0  0
 21 44  1  0  0  0  0
 22 23  1  0  0  0  0
 22 45  1  0  0  0  0
 23 24  1  0  0  0  0
 23 32  2  0  0  0  0
 24 25  2  0  0  0  0
 24 31  1  0  0  0  0
 25 26  1  0  0  0  0
 26 27  1  0  0  0  0
 27 28  1  0  0  0  0
 27 31  2  0  0  0  0
 28 29  1  0  0  0  0
 28 30  1  0  0  0  0
 28 46  1  0  0  0  0
 32 47  1  0  0  0  0
M  END
$$$$
