
 OpenBabel01122422423D

 42 45  0  0  0  0  0  0  0  0999 V2000
    1.0761   -0.0146   -0.0377 O   0  0  0  0  0  0  0  0  0  0  0  0
    2.2999   -0.0071    0.0390 C   0  0  0  0  0  0  0  0  0  0  0  0
    3.0397   -1.1602    0.0646 N   0  0  0  0  0  0  0  0  0  0  0  0
    2.4088   -2.4548    0.0722 C   0  0  0  0  0  0  0  0  0  0  0  0
    2.1787   -2.9535    1.4589 C   0  0  0  0  0  0  0  0  0  0  0  0
    1.5699   -4.1385    1.8449 C   0  0  0  0  0  0  0  0  0  0  0  0
    1.0106   -5.3023    1.1702 C   0  0  0  0  0  0  0  0  0  0  0  0
   -0.0956   -5.9825    1.7043 C   0  0  0  0  0  0  0  0  0  0  0  0
   -0.6204   -7.1061    1.0560 C   0  0  0  0  0  0  0  0  0  0  0  0
   -0.0465   -7.5505   -0.1307 C   0  0  0  0  0  0  0  0  0  0  0  0
   -0.5442   -8.6313   -0.7437 F   0  0  0  0  0  0  0  0  0  0  0  0
    1.0401   -6.8958   -0.6831 C   0  0  0  0  0  0  0  0  0  0  0  0
    1.5623   -5.7878   -0.0257 C   0  0  0  0  0  0  0  0  0  0  0  0
    2.6462   -5.2133   -0.5632 F   0  0  0  0  0  0  0  0  0  0  0  0
    1.5273   -4.1510    3.2158 O   0  0  0  0  0  0  0  0  0  0  0  0
    2.1354   -2.9906    3.5811 C   0  0  0  0  0  0  0  0  0  0  0  0
    2.5521   -2.2394    2.5867 N   0  0  0  0  0  0  0  0  0  0  0  0
    3.0915    1.1917    0.0841 C   0  0  0  0  0  0  0  0  0  0  0  0
    4.3084    1.4362   -0.5271 C   0  0  0  0  0  0  0  0  0  0  0  0
    4.6766    2.7451   -0.4255 N   0  0  0  0  0  0  0  0  0  0  0  0
    3.6946    3.3114    0.2407 C   0  0  0  0  0  0  0  0  0  0  0  0
    2.7218    2.4123    0.6302 N   0  0  0  0  0  0  0  0  0  0  0  0
    1.6264    2.7179    1.4818 C   0  0  0  0  0  0  0  0  0  0  0  0
    1.0590    3.9969    1.4510 C   0  0  0  0  0  0  0  0  0  0  0  0
   -0.0020    4.2927    2.3011 C   0  0  0  0  0  0  0  0  0  0  0  0
   -0.5612    5.5089    2.2513 F   0  0  0  0  0  0  0  0  0  0  0  0
   -0.4950    3.3514    3.1964 C   0  0  0  0  0  0  0  0  0  0  0  0
    0.0746    2.0814    3.2376 C   0  0  0  0  0  0  0  0  0  0  0  0
    1.1308    1.7605    2.3808 C   0  0  0  0  0  0  0  0  0  0  0  0
    4.0104   -1.1170    0.3386 H   0  0  0  0  0  0  0  0  0  0  0  0
    3.0980   -3.1085   -0.4630 H   0  0  0  0  0  0  0  0  0  0  0  0
    1.4595   -2.4157   -0.4728 H   0  0  0  0  0  0  0  0  0  0  0  0
   -0.5591   -5.6423    2.6289 H   0  0  0  0  0  0  0  0  0  0  0  0
   -1.4713   -7.6393    1.4700 H   0  0  0  0  0  0  0  0  0  0  0  0
    1.4886   -7.2450   -1.6058 H   0  0  0  0  0  0  0  0  0  0  0  0
    2.2169   -2.8005    4.6406 H   0  0  0  0  0  0  0  0  0  0  0  0
    4.9178    0.7369   -1.0889 H   0  0  0  0  0  0  0  0  0  0  0  0
    3.6723    4.3545    0.5276 H   0  0  0  0  0  0  0  0  0  0  0  0
    1.3810    4.7619    0.7518 H   0  0  0  0  0  0  0  0  0  0  0  0
   -1.3191    3.6114    3.8523 H   0  0  0  0  0  0  0  0  0  0  0  0
   -0.2989    1.3366    3.9366 H   0  0  0  0  0  0  0  0  0  0  0  0
    1.5663    0.7664    2.4612 H   0  0  0  0  0  0  0  0  0  0  0  0
  1  2  2  0  0  0  0
  2  3  1  0  0  0  0
  2 18  1  0  0  0  0
  3  4  1  0  0  0  0
  3 30  1  0  0  0  0
  4  5  1  0  0  0  0
  4 31  1  0  0  0  0
  4 32  1  0  0  0  0
  5  6  2  0  0  0  0
  5 17  1  0  0  0  0
  6  7  1  0  0  0  0
  6 15  1  0  0  0  0
  7  8  2  0  0  0  0
  7 13  1  0  0  0  0
  8  9  1  0  0  0  0
  8 33  1  0  0  0  0
  9 10  2  0  0  0  0
  9 34  1  0  0  0  0
 10 11  1  0  0  0  0
 10 12  1  0  0  0  0
 12 13  2  0  0  0  0
 12 35  1  0  0  0  0
 13 14  1  0  0  0  0
 15 16  1  0  0  0  0
 16 17  2  0  0  0  0
 16 36  1  0  0  0  0
 18 19  2  0  0  0  0
 18 22  1  0  0  0  0
 19 20  1  0  0  0  0
 19 37  1  0  0  0  0
 20 21  2  0  0  0  0
 21 22  1  0  0  0  0
 21 38  1  0  0  0  0
 22 23  1  0  0  0  0
 23 24  2  0  0  0  0
 23 29  1  0  0  0  0
 24 25  1  0  0  0  0
 24 39  1  0  0  0  0
 25 26  1  0  0  0  0
 25 27  2  0  0  0  0
 27 28  1  0  0  0  0
 27 40  1  0  0  0  0
 28 29  2  0  0  0  0
 28 41  1  0  0  0  0
 29 42  1  0  0  0  0
M  END
$$$$
