
 OpenBabel01122422423D

 63 66  0  0  1  0  0  0  0  0999 V2000
   -1.6327    0.8123   -5.3873 C   0  0  0  0  0  0  0  0  0  0  0  0
   -2.4737   -0.3928   -5.0820 C   0  0  0  0  0  0  0  0  0  0  0  0
   -2.8686   -1.2639   -6.1018 C   0  0  0  0  0  0  0  0  0  0  0  0
   -3.6967   -2.3492   -5.8180 C   0  0  0  0  0  0  0  0  0  0  0  0
   -4.1237   -2.5835   -4.5107 C   0  0  0  0  0  0  0  0  0  0  0  0
   -3.7063   -1.7488   -3.4661 C   0  0  0  0  0  0  0  0  0  0  0  0
   -4.1444   -2.0145   -2.0412 C   0  0  0  0  0  0  0  0  0  0  0  0
   -3.7453   -3.4022   -1.4830 C   0  0  3  0  0  0  0  0  0  0  0  0
   -2.2285   -3.6418   -1.5440 C   0  0  0  0  0  0  0  0  0  0  0  0
   -1.5260   -2.6832   -0.7605 O   0  0  0  0  0  0  0  0  0  0  0  0
   -4.2136   -3.5548   -0.0198 C   0  0  0  0  0  0  0  0  0  0  0  0
   -5.6557   -3.4858    0.1359 N   0  0  0  0  0  0  0  0  0  0  0  0
   -6.4619   -4.5799   -0.0338 C   0  0  0  0  0  0  0  0  0  0  0  0
   -6.0552   -5.7067   -0.2754 O   0  0  0  0  0  0  0  0  0  0  0  0
   -7.7843   -4.2448    0.0887 N   0  0  0  0  0  0  0  0  0  0  0  0
   -8.8040   -5.2710    0.0352 C   0  0  0  0  0  0  0  0  0  0  0  0
  -10.1004   -4.6949   -0.4304 C   0  0  0  0  0  0  0  0  0  0  0  0
  -10.3599   -3.3885   -0.8096 C   0  0  0  0  0  0  0  0  0  0  0  0
  -11.6652   -3.3212   -1.2258 N   0  0  0  0  0  0  0  0  0  0  0  0
  -12.3643   -2.1970   -1.7484 C   0  0  0  0  0  0  0  0  0  0  0  0
  -11.7157   -0.9723   -1.9674 C   0  0  0  0  0  0  0  0  0  0  0  0
  -12.4196    0.1093   -2.5040 C   0  0  0  0  0  0  0  0  0  0  0  0
  -13.7711   -0.0209   -2.8187 C   0  0  0  0  0  0  0  0  0  0  0  0
  -14.4260   -1.2300   -2.5956 C   0  0  0  0  0  0  0  0  0  0  0  0
  -13.7283   -2.3162   -2.0651 C   0  0  0  0  0  0  0  0  0  0  0  0
  -12.2767   -4.5162   -1.0993 N   0  0  0  0  0  0  0  0  0  0  0  0
  -11.3469   -5.3696   -0.6434 C   0  0  0  0  0  0  0  0  0  0  0  0
  -11.7181   -6.7787   -0.4533 C   0  0  0  0  0  0  0  0  0  0  0  0
  -12.6988   -7.3497   -1.2714 C   0  0  0  0  0  0  0  0  0  0  0  0
  -13.0786   -8.6629   -1.0535 C   0  0  0  0  0  0  0  0  0  0  0  0
  -12.5458   -9.4431   -0.0909 N   0  0  0  0  0  0  0  0  0  0  0  0
  -11.6004   -8.8779    0.6879 C   0  0  0  0  0  0  0  0  0  0  0  0
  -11.1598   -7.5694    0.5511 C   0  0  0  0  0  0  0  0  0  0  0  0
   -2.8962   -0.6424   -3.7674 C   0  0  0  0  0  0  0  0  0  0  0  0
   -1.3365    0.8393   -6.4414 H   0  0  0  0  0  0  0  0  0  0  0  0
   -0.7195    0.8035   -4.7840 H   0  0  0  0  0  0  0  0  0  0  0  0
   -2.1974    1.7258   -5.1746 H   0  0  0  0  0  0  0  0  0  0  0  0
   -2.5430   -1.0986   -7.1265 H   0  0  0  0  0  0  0  0  0  0  0  0
   -4.0147   -3.0111   -6.6195 H   0  0  0  0  0  0  0  0  0  0  0  0
   -4.7854   -3.4252   -4.3168 H   0  0  0  0  0  0  0  0  0  0  0  0
   -5.2362   -1.9024   -2.0148 H   0  0  0  0  0  0  0  0  0  0  0  0
   -3.7496   -1.2295   -1.3830 H   0  0  0  0  0  0  0  0  0  0  0  0
   -4.2300   -4.1805   -2.0864 H   0  0  0  0  0  0  0  0  0  0  0  0
   -1.8446   -3.6075   -2.5689 H   0  0  0  0  0  0  0  0  0  0  0  0
   -1.9873   -4.6341   -1.1475 H   0  0  0  0  0  0  0  0  0  0  0  0
   -1.3900   -1.9008   -1.3230 H   0  0  0  0  0  0  0  0  0  0  0  0
   -3.7932   -2.7648    0.6118 H   0  0  0  0  0  0  0  0  0  0  0  0
   -3.8740   -4.5179    0.3803 H   0  0  0  0  0  0  0  0  0  0  0  0
   -6.0927   -2.5780    0.1066 H   0  0  0  0  0  0  0  0  0  0  0  0
   -7.9725   -3.4685    0.7029 H   0  0  0  0  0  0  0  0  0  0  0  0
   -8.8972   -5.6555    1.0553 H   0  0  0  0  0  0  0  0  0  0  0  0
   -8.4880   -6.0865   -0.6231 H   0  0  0  0  0  0  0  0  0  0  0  0
   -9.7109   -2.5280   -0.8348 H   0  0  0  0  0  0  0  0  0  0  0  0
  -10.6609   -0.8289   -1.7500 H   0  0  0  0  0  0  0  0  0  0  0  0
  -11.9104    1.0532   -2.6840 H   0  0  0  0  0  0  0  0  0  0  0  0
  -14.3147    0.8204   -3.2403 H   0  0  0  0  0  0  0  0  0  0  0  0
  -15.4802   -1.3331   -2.8396 H   0  0  0  0  0  0  0  0  0  0  0  0
  -14.2588   -3.2527   -1.9008 H   0  0  0  0  0  0  0  0  0  0  0  0
  -13.1763   -6.7775   -2.0626 H   0  0  0  0  0  0  0  0  0  0  0  0
  -13.8504   -9.1313   -1.6578 H   0  0  0  0  0  0  0  0  0  0  0  0
  -11.1977   -9.5237    1.4624 H   0  0  0  0  0  0  0  0  0  0  0  0
  -10.4228   -7.1960    1.2477 H   0  0  0  0  0  0  0  0  0  0  0  0
   -2.5926    0.0401   -2.9762 H   0  0  0  0  0  0  0  0  0  0  0  0
  1  2  1  0  0  0  0
  1 35  1  0  0  0  0
  1 36  1  0  0  0  0
  1 37  1  0  0  0  0
  2  3  2  0  0  0  0
  2 34  1  0  0  0  0
  3  4  1  0  0  0  0
  3 38  1  0  0  0  0
  4  5  2  0  0  0  0
  4 39  1  0  0  0  0
  5  6  1  0  0  0  0
  5 40  1  0  0  0  0
  6  7  1  0  0  0  0
  6 34  2  0  0  0  0
  7  8  1  0  0  0  0
  7 41  1  0  0  0  0
  7 42  1  0  0  0  0
  8  9  1  0  0  0  0
  8 11  1  0  0  0  0
  8 43  1  0  0  0  0
  9 10  1  0  0  0  0
  9 44  1  0  0  0  0
  9 45  1  0  0  0  0
 10 46  1  0  0  0  0
 11 12  1  0  0  0  0
 11 47  1  0  0  0  0
 11 48  1  0  0  0  0
 12 13  1  0  0  0  0
 12 49  1  0  0  0  0
 13 14  2  0  0  0  0
 13 15  1  0  0  0  0
 15 16  1  0  0  0  0
 15 50  1  0  0  0  0
 16 17  1  0  0  0  0
 16 51  1  0  0  0  0
 16 52  1  0  0  0  0
 17 18  2  0  0  0  0
 17 27  1  0  0  0  0
 18 19  1  0  0  0  0
 18 53  1  0  0  0  0
 19 20  1  0  0  0  0
 19 26  1  0  0  0  0
 20 21  2  0  0  0  0
 20 25  1  0  0  0  0
 21 22  1  0  0  0  0
 21 54  1  0  0  0  0
 22 23  2  0  0  0  0
 22 55  1  0  0  0  0
 23 24  1  0  0  0  0
 23 56  1  0  0  0  0
 24 25  2  0  0  0  0
 24 57  1  0  0  0  0
 25 58  1  0  0  0  0
 26 27  2  0  0  0  0
 27 28  1  0  0  0  0
 28 29  2  0  0  0  0
 28 33  1  0  0  0  0
 29 30  1  0  0  0  0
 29 59  1  0  0  0  0
 30 31  2  0  0  0  0
 30 60  1  0  0  0  0
 31 32  1  0  0  0  0
 32 33  2  0  0  0  0
 32 61  1  0  0  0  0
 33 62  1  0  0  0  0
 34 63  1  0  0  0  0
M  END
$$$$
