
 OpenBabel01122422423D

 39 42  0  0  0  0  0  0  0  0999 V2000
    0.8600   -0.1971    0.1299 O   0  0  0  0  0  0  0  0  0  0  0  0
    2.0722   -0.0524    0.0691 C   0  0  0  0  0  0  0  0  0  0  0  0
    2.7578    1.1393   -0.0255 N   0  0  0  0  0  0  0  0  0  0  0  0
    2.1411    2.3527   -0.0621 C   0  0  0  0  0  0  0  0  0  0  0  0
    0.8635    2.5954    0.1880 N   0  0  0  0  0  0  0  0  0  0  0  0
    0.7327    3.8921   -0.1311 N   0  0  0  0  0  0  0  0  0  0  0  0
   -0.5343    4.5205   -0.1076 C   0  0  0  0  0  0  0  0  0  0  0  0
   -0.6894    5.8454   -0.5422 C   0  0  0  0  0  0  0  0  0  0  0  0
   -1.9579    6.4322   -0.5262 C   0  0  0  0  0  0  0  0  0  0  0  0
   -3.0543    5.7058   -0.0751 C   0  0  0  0  0  0  0  0  0  0  0  0
   -4.2630    6.2855   -0.0589 F   0  0  0  0  0  0  0  0  0  0  0  0
   -2.9021    4.3941    0.3581 C   0  0  0  0  0  0  0  0  0  0  0  0
   -3.9626    3.7005    0.7948 F   0  0  0  0  0  0  0  0  0  0  0  0
   -1.6517    3.7902    0.3396 C   0  0  0  0  0  0  0  0  0  0  0  0
    1.9618    4.3945   -0.4764 C   0  0  0  0  0  0  0  0  0  0  0  0
    2.8726    3.4473   -0.4148 N   0  0  0  0  0  0  0  0  0  0  0  0
    2.9263   -1.2184    0.0506 C   0  0  0  0  0  0  0  0  0  0  0  0
    4.2944   -1.2802    0.0988 C   0  0  0  0  0  0  0  0  0  0  0  0
    5.0787   -0.2345    0.1726 F   0  0  0  0  0  0  0  0  0  0  0  0
    4.6677   -2.6050    0.1026 N   0  0  0  0  0  0  0  0  0  0  0  0
    5.9766   -3.1338    0.2488 C   0  0  0  0  0  0  0  0  0  0  0  0
    7.0793   -2.2814    0.4005 C   0  0  0  0  0  0  0  0  0  0  0  0
    8.3463   -2.8099    0.6341 C   0  0  0  0  0  0  0  0  0  0  0  0
    8.5250   -4.1890    0.7016 C   0  0  0  0  0  0  0  0  0  0  0  0
    7.4396   -5.0425    0.5164 C   0  0  0  0  0  0  0  0  0  0  0  0
    6.1648   -4.5213    0.2876 C   0  0  0  0  0  0  0  0  0  0  0  0
    3.5768   -3.4137    0.0004 N   0  0  0  0  0  0  0  0  0  0  0  0
    2.5398   -2.5728   -0.0073 C   0  0  0  0  0  0  0  0  0  0  0  0
    3.7506    1.1654   -0.1893 H   0  0  0  0  0  0  0  0  0  0  0  0
    0.1428    6.4379   -0.9087 H   0  0  0  0  0  0  0  0  0  0  0  0
   -2.0991    7.4537   -0.8687 H   0  0  0  0  0  0  0  0  0  0  0  0
   -1.5672    2.7593    0.6742 H   0  0  0  0  0  0  0  0  0  0  0  0
    2.1351    5.4194   -0.7681 H   0  0  0  0  0  0  0  0  0  0  0  0
    6.9922   -1.2010    0.3597 H   0  0  0  0  0  0  0  0  0  0  0  0
    9.1924   -2.1403    0.7755 H   0  0  0  0  0  0  0  0  0  0  0  0
    9.5124   -4.5968    0.9007 H   0  0  0  0  0  0  0  0  0  0  0  0
    7.5820   -6.1200    0.5618 H   0  0  0  0  0  0  0  0  0  0  0  0
    5.3286   -5.2079    0.1602 H   0  0  0  0  0  0  0  0  0  0  0  0
    1.5322   -2.9699   -0.0533 H   0  0  0  0  0  0  0  0  0  0  0  0
  1  2  2  0  0  0  0
  2  3  1  0  0  0  0
  2 17  1  0  0  0  0
  3  4  1  0  0  0  0
  3 29  1  0  0  0  0
  4  5  2  0  0  0  0
  4 16  1  0  0  0  0
  5  6  1  0  0  0  0
  6  7  1  0  0  0  0
  6 15  1  0  0  0  0
  7  8  2  0  0  0  0
  7 14  1  0  0  0  0
  8  9  1  0  0  0  0
  8 30  1  0  0  0  0
  9 10  2  0  0  0  0
  9 31  1  0  0  0  0
 10 11  1  0  0  0  0
 10 12  1  0  0  0  0
 12 13  1  0  0  0  0
 12 14  2  0  0  0  0
 14 32  1  0  0  0  0
 15 16  2  0  0  0  0
 15 33  1  0  0  0  0
 17 18  2  0  0  0  0
 17 28  1  0  0  0  0
 18 19  1  0  0  0  0
 18 20  1  0  0  0  0
 20 21  1  0  0  0  0
 20 27  1  0  0  0  0
 21 22  2  0  0  0  0
 21 26  1  0  0  0  0
 22 23  1  0  0  0  0
 22 34  1  0  0  0  0
 23 24  2  0  0  0  0
 23 35  1  0  0  0  0
 24 25  1  0  0  0  0
 24 36  1  0  0  0  0
 25 26  2  0  0  0  0
 25 37  1  0  0  0  0
 26 38  1  0  0  0  0
 27 28  2  0  0  0  0
 28 39  1  0  0  0  0
M  END
$$$$
