
 OpenBabel01122422423D

 42 45  0  0  0  0  0  0  0  0999 V2000
    1.0983   -0.3964   -0.1798 O   0  0  0  0  0  0  0  0  0  0  0  0
    2.2943   -0.1656   -0.0266 C   0  0  0  0  0  0  0  0  0  0  0  0
    2.9815   -0.9208    0.8999 N   0  0  0  0  0  0  0  0  0  0  0  0
    4.3184   -0.7658    1.2731 C   0  0  0  0  0  0  0  0  0  0  0  0
    4.9255   -1.6938    2.0882 C   0  0  0  0  0  0  0  0  0  0  0  0
    6.2708   -1.5086    2.4024 C   0  0  0  0  0  0  0  0  0  0  0  0
    6.9463   -0.3908    1.9191 C   0  0  0  0  0  0  0  0  0  0  0  0
    8.3334   -0.0389    2.2366 C   0  0  0  0  0  0  0  0  0  0  0  0
    9.1286    0.6753    1.3158 C   0  0  0  0  0  0  0  0  0  0  0  0
   10.4300    1.0736    1.6367 C   0  0  0  0  0  0  0  0  0  0  0  0
   10.9615    0.7672    2.8853 C   0  0  0  0  0  0  0  0  0  0  0  0
   10.1970    0.0621    3.8089 C   0  0  0  0  0  0  0  0  0  0  0  0
    8.9001   -0.3306    3.4820 C   0  0  0  0  0  0  0  0  0  0  0  0
    8.1875   -0.9726    4.4205 F   0  0  0  0  0  0  0  0  0  0  0  0
    6.3116    0.4869    1.1162 N   0  0  0  0  0  0  0  0  0  0  0  0
    5.0090    0.2934    0.8019 N   0  0  0  0  0  0  0  0  0  0  0  0
    3.0554    0.7371   -0.7173 N   0  0  0  0  0  0  0  0  0  0  0  0
    2.6525    1.5821   -1.7096 C   0  0  0  0  0  0  0  0  0  0  0  0
    1.4109    1.7264   -2.1482 N   0  0  0  0  0  0  0  0  0  0  0  0
    1.5371    2.6660   -3.1094 N   0  0  0  0  0  0  0  0  0  0  0  0
    0.4067    3.1420   -3.8081 C   0  0  0  0  0  0  0  0  0  0  0  0
   -0.8746    2.6929   -3.4311 C   0  0  0  0  0  0  0  0  0  0  0  0
   -1.9955    3.1639   -4.1003 C   0  0  0  0  0  0  0  0  0  0  0  0
   -1.8374    4.0674   -5.1446 C   0  0  0  0  0  0  0  0  0  0  0  0
   -2.9196    4.5187   -5.7926 F   0  0  0  0  0  0  0  0  0  0  0  0
   -0.5762    4.5135   -5.5300 C   0  0  0  0  0  0  0  0  0  0  0  0
    0.5560    4.0551   -4.8576 C   0  0  0  0  0  0  0  0  0  0  0  0
    2.7956    3.1246   -3.3446 N   0  0  0  0  0  0  0  0  0  0  0  0
    3.4965    2.4466   -2.4345 C   0  0  0  0  0  0  0  0  0  0  0  0
    2.4249   -1.6496    1.3227 H   0  0  0  0  0  0  0  0  0  0  0  0
    4.3903   -2.5593    2.4640 H   0  0  0  0  0  0  0  0  0  0  0  0
    6.7771   -2.2392    3.0251 H   0  0  0  0  0  0  0  0  0  0  0  0
    8.7298    0.9430    0.3370 H   0  0  0  0  0  0  0  0  0  0  0  0
   11.0182    1.6349    0.9140 H   0  0  0  0  0  0  0  0  0  0  0  0
   11.9673    1.0875    3.1440 H   0  0  0  0  0  0  0  0  0  0  0  0
   10.5873   -0.1738    4.7929 H   0  0  0  0  0  0  0  0  0  0  0  0
    4.0340    0.7999   -0.4668 H   0  0  0  0  0  0  0  0  0  0  0  0
   -0.9997    1.9856   -2.6109 H   0  0  0  0  0  0  0  0  0  0  0  0
   -2.9877    2.8330   -3.8111 H   0  0  0  0  0  0  0  0  0  0  0  0
   -0.4823    5.2157   -6.3524 H   0  0  0  0  0  0  0  0  0  0  0  0
    1.5412    4.4059   -5.1611 H   0  0  0  0  0  0  0  0  0  0  0  0
    4.5648    2.5986   -2.3471 H   0  0  0  0  0  0  0  0  0  0  0  0
  1  2  2  0  0  0  0
  2  3  1  0  0  0  0
  2 17  1  0  0  0  0
  3  4  1  0  0  0  0
  3 30  1  0  0  0  0
  4  5  2  0  0  0  0
  4 16  1  0  0  0  0
  5  6  1  0  0  0  0
  5 31  1  0  0  0  0
  6  7  2  0  0  0  0
  6 32  1  0  0  0  0
  7  8  1  0  0  0  0
  7 15  1  0  0  0  0
  8  9  2  0  0  0  0
  8 13  1  0  0  0  0
  9 10  1  0  0  0  0
  9 33  1  0  0  0  0
 10 11  2  0  0  0  0
 10 34  1  0  0  0  0
 11 12  1  0  0  0  0
 11 35  1  0  0  0  0
 12 13  2  0  0  0  0
 12 36  1  0  0  0  0
 13 14  1  0  0  0  0
 15 16  2  0  0  0  0
 17 18  1  0  0  0  0
 17 37  1  0  0  0  0
 18 19  2  0  0  0  0
 18 29  1  0  0  0  0
 19 20  1  0  0  0  0
 20 21  1  0  0  0  0
 20 28  1  0  0  0  0
 21 22  2  0  0  0  0
 21 27  1  0  0  0  0
 22 23  1  0  0  0  0
 22 38  1  0  0  0  0
 23 24  2  0  0  0  0
 23 39  1  0  0  0  0
 24 25  1  0  0  0  0
 24 26  1  0  0  0  0
 26 27  2  0  0  0  0
 26 40  1  0  0  0  0
 27 41  1  0  0  0  0
 28 29  2  0  0  0  0
 29 42  1  0  0  0  0
M  END
$$$$
