
 OpenBabel01122422423D

 40 43  0  0  0  0  0  0  0  0999 V2000
    0.8185    0.1167    0.3650 O   0  0  0  0  0  0  0  0  0  0  0  0
    2.0348    0.0591    0.1994 C   0  0  0  0  0  0  0  0  0  0  0  0
    2.7647    0.8861   -0.6414 N   0  0  0  0  0  0  0  0  0  0  0  0
    2.1756    1.8722   -1.4161 C   0  0  0  0  0  0  0  0  0  0  0  0
    0.9129    2.3934   -1.2804 C   0  0  0  0  0  0  0  0  0  0  0  0
    0.6942    3.2499   -2.3339 N   0  0  0  0  0  0  0  0  0  0  0  0
   -0.5010    3.9391   -2.6223 C   0  0  0  0  0  0  0  0  0  0  0  0
   -1.3699    4.3192   -1.5966 C   0  0  0  0  0  0  0  0  0  0  0  0
   -1.0644    4.1156   -0.3067 F   0  0  0  0  0  0  0  0  0  0  0  0
   -2.5624    4.9883   -1.8739 C   0  0  0  0  0  0  0  0  0  0  0  0
   -2.9141    5.2631   -3.1932 C   0  0  0  0  0  0  0  0  0  0  0  0
   -2.0617    4.8739   -4.2257 C   0  0  0  0  0  0  0  0  0  0  0  0
   -0.8564    4.2281   -3.9392 C   0  0  0  0  0  0  0  0  0  0  0  0
   -0.1126    3.8200   -4.9770 F   0  0  0  0  0  0  0  0  0  0  0  0
    1.8023    3.3548   -3.1122 N   0  0  0  0  0  0  0  0  0  0  0  0
    2.7026    2.5600   -2.5235 C   0  0  0  0  0  0  0  0  0  0  0  0
    2.8074   -0.9745    0.8819 C   0  0  0  0  0  0  0  0  0  0  0  0
    4.1476   -1.0673    0.8558 N   0  0  0  0  0  0  0  0  0  0  0  0
    4.4587   -2.1383    1.6967 O   0  0  0  0  0  0  0  0  0  0  0  0
    3.3083   -2.6814    2.1970 C   0  0  0  0  0  0  0  0  0  0  0  0
    3.4288   -3.7714    3.1573 C   0  0  0  0  0  0  0  0  0  0  0  0
    4.5200   -4.6509    3.1086 C   0  0  0  0  0  0  0  0  0  0  0  0
    4.6362   -5.6988    4.0250 C   0  0  0  0  0  0  0  0  0  0  0  0
    3.6622   -5.8824    5.0090 C   0  0  0  0  0  0  0  0  0  0  0  0
    2.5694   -5.0269    5.0737 C   0  0  0  0  0  0  0  0  0  0  0  0
    2.4531   -3.9816    4.1512 C   0  0  0  0  0  0  0  0  0  0  0  0
    1.3708   -3.1445    4.2378 O   0  0  0  0  0  0  0  0  0  0  0  0
    2.2423   -2.0045    1.6685 C   0  0  0  0  0  0  0  0  0  0  0  0
    3.7417    0.6578   -0.7899 H   0  0  0  0  0  0  0  0  0  0  0  0
    0.1271    2.1793   -0.5705 H   0  0  0  0  0  0  0  0  0  0  0  0
   -3.2053    5.2950   -1.0535 H   0  0  0  0  0  0  0  0  0  0  0  0
   -3.8472    5.7746   -3.4154 H   0  0  0  0  0  0  0  0  0  0  0  0
   -2.3321    5.0565   -5.2621 H   0  0  0  0  0  0  0  0  0  0  0  0
    3.6882    2.4841   -2.9633 H   0  0  0  0  0  0  0  0  0  0  0  0
    5.2877   -4.5340    2.3462 H   0  0  0  0  0  0  0  0  0  0  0  0
    5.4850   -6.3752    3.9736 H   0  0  0  0  0  0  0  0  0  0  0  0
    3.7584   -6.6949    5.7251 H   0  0  0  0  0  0  0  0  0  0  0  0
    1.8190   -5.1788    5.8432 H   0  0  0  0  0  0  0  0  0  0  0  0
    0.8129   -3.4139    4.9857 H   0  0  0  0  0  0  0  0  0  0  0  0
    1.1945   -2.1825    1.8533 H   0  0  0  0  0  0  0  0  0  0  0  0
  1  2  2  0  0  0  0
  2  3  1  0  0  0  0
  2 17  1  0  0  0  0
  3  4  1  0  0  0  0
  3 29  1  0  0  0  0
  4  5  2  0  0  0  0
  4 16  1  0  0  0  0
  5  6  1  0  0  0  0
  5 30  1  0  0  0  0
  6  7  1  0  0  0  0
  6 15  1  0  0  0  0
  7  8  2  0  0  0  0
  7 13  1  0  0  0  0
  8  9  1  0  0  0  0
  8 10  1  0  0  0  0
 10 11  2  0  0  0  0
 10 31  1  0  0  0  0
 11 12  1  0  0  0  0
 11 32  1  0  0  0  0
 12 13  2  0  0  0  0
 12 33  1  0  0  0  0
 13 14  1  0  0  0  0
 15 16  2  0  0  0  0
 16 34  1  0  0  0  0
 17 18  2  0  0  0  0
 17 28  1  0  0  0  0
 18 19  1  0  0  0  0
 19 20  1  0  0  0  0
 20 21  1  0  0  0  0
 20 28  2  0  0  0  0
 21 22  2  0  0  0  0
 21 26  1  0  0  0  0
 22 23  1  0  0  0  0
 22 35  1  0  0  0  0
 23 24  2  0  0  0  0
 23 36  1  0  0  0  0
 24 25  1  0  0  0  0
 24 37  1  0  0  0  0
 25 26  2  0  0  0  0
 25 38  1  0  0  0  0
 26 27  1  0  0  0  0
 27 39  1  0  0  0  0
 28 40  1  0  0  0  0
M  END
$$$$
