
 OpenBabel01122422423D

 51 54  0  0  0  0  0  0  0  0999 V2000
    0.2732   -0.9260    1.3026 C   0  0  0  0  0  0  0  0  0  0  0  0
    1.6401   -0.5566    0.7449 C   0  0  0  0  0  0  0  0  0  0  0  0
    2.1361    0.7164    1.3818 C   0  0  0  0  0  0  0  0  0  0  0  0
    1.8441    1.9499    0.7858 C   0  0  0  0  0  0  0  0  0  0  0  0
    2.2351    3.1383    1.3965 C   0  0  0  0  0  0  0  0  0  0  0  0
    2.9082    3.1040    2.6162 C   0  0  0  0  0  0  0  0  0  0  0  0
    3.1387    1.8853    3.2620 C   0  0  0  0  0  0  0  0  0  0  0  0
    3.7052    1.7703    4.5147 O   0  0  0  0  0  0  0  0  0  0  0  0
    3.4793    2.7509    5.4585 C   0  0  0  0  0  0  0  0  0  0  0  0
    2.3072    3.5124    5.5443 C   0  0  0  0  0  0  0  0  0  0  0  0
    2.1991    4.5551    6.4731 C   0  0  0  0  0  0  0  0  0  0  0  0
    3.2361    4.7904    7.3761 C   0  0  0  0  0  0  0  0  0  0  0  0
    3.1714    5.8768    8.3976 C   0  0  0  0  0  0  0  0  0  0  0  0
    3.7234    5.7192    9.4769 O   0  0  0  0  0  0  0  0  0  0  0  0
    2.5132    7.0319    8.0417 N   0  0  0  0  0  0  0  0  0  0  0  0
    2.4412    8.1721    8.9399 C   0  0  0  0  0  0  0  0  0  0  0  0
    0.9923    8.4789    9.2672 C   0  0  0  0  0  0  0  0  0  0  0  0
    0.5674    8.4398   10.5369 C   0  0  0  0  0  0  0  0  0  0  0  0
   -0.8364    8.7623   10.8402 C   0  0  0  0  0  0  0  0  0  0  0  0
   -1.2158    8.7125   12.0099 O   0  0  0  0  0  0  0  0  0  0  0  0
   -1.6174    9.1134    9.7525 N   0  0  0  0  0  0  0  0  0  0  0  0
   -2.9550    9.4390    9.9531 C   0  0  0  0  0  0  0  0  0  0  0  0
   -3.7584    9.7874    8.9407 C   0  0  0  0  0  0  0  0  0  0  0  0
   -3.2356    9.8373    7.6005 C   0  0  0  0  0  0  0  0  0  0  0  0
   -1.9554    9.5312    7.3583 C   0  0  0  0  0  0  0  0  0  0  0  0
   -1.0561    9.1331    8.4801 C   0  0  0  0  0  0  0  0  0  0  0  0
    0.1804    8.8330    8.2121 N   0  0  0  0  0  0  0  0  0  0  0  0
    4.3634    3.9536    7.3654 C   0  0  0  0  0  0  0  0  0  0  0  0
    4.4863    2.9428    6.4047 C   0  0  0  0  0  0  0  0  0  0  0  0
    2.7987    0.6917    2.6192 C   0  0  0  0  0  0  0  0  0  0  0  0
   -0.1092   -1.8288    0.8182 H   0  0  0  0  0  0  0  0  0  0  0  0
   -0.4508   -0.1193    1.1402 H   0  0  0  0  0  0  0  0  0  0  0  0
    0.3254   -1.1119    2.3810 H   0  0  0  0  0  0  0  0  0  0  0  0
    1.5738   -0.4279   -0.3428 H   0  0  0  0  0  0  0  0  0  0  0  0
    2.3551   -1.3699    0.9153 H   0  0  0  0  0  0  0  0  0  0  0  0
    1.2995    1.9900   -0.1551 H   0  0  0  0  0  0  0  0  0  0  0  0
    1.9968    4.0921    0.9348 H   0  0  0  0  0  0  0  0  0  0  0  0
    3.2128    4.0431    3.0688 H   0  0  0  0  0  0  0  0  0  0  0  0
    1.4708    3.3190    4.8760 H   0  0  0  0  0  0  0  0  0  0  0  0
    1.2902    5.1497    6.4925 H   0  0  0  0  0  0  0  0  0  0  0  0
    2.1823    7.1771    7.1020 H   0  0  0  0  0  0  0  0  0  0  0  0
    2.8940    9.0254    8.4240 H   0  0  0  0  0  0  0  0  0  0  0  0
    3.0262    7.9854    9.8461 H   0  0  0  0  0  0  0  0  0  0  0  0
    1.2024    8.1812   11.3736 H   0  0  0  0  0  0  0  0  0  0  0  0
   -3.3257    9.3964   10.9758 H   0  0  0  0  0  0  0  0  0  0  0  0
   -4.7996   10.0368    9.1076 H   0  0  0  0  0  0  0  0  0  0  0  0
   -3.9029   10.1306    6.7963 H   0  0  0  0  0  0  0  0  0  0  0  0
   -1.5258    9.5633    6.3657 H   0  0  0  0  0  0  0  0  0  0  0  0
    5.1539    4.0961    8.0983 H   0  0  0  0  0  0  0  0  0  0  0  0
    5.3723    2.3139    6.3945 H   0  0  0  0  0  0  0  0  0  0  0  0
    3.0202   -0.2577    3.1013 H   0  0  0  0  0  0  0  0  0  0  0  0
  1  2  1  0  0  0  0
  1 31  1  0  0  0  0
  1 32  1  0  0  0  0
  1 33  1  0  0  0  0
  2  3  1  0  0  0  0
  2 34  1  0  0  0  0
  2 35  1  0  0  0  0
  3  4  2  0  0  0  0
  3 30  1  0  0  0  0
  4  5  1  0  0  0  0
  4 36  1  0  0  0  0
  5  6  2  0  0  0  0
  5 37  1  0  0  0  0
  6  7  1  0  0  0  0
  6 38  1  0  0  0  0
  7  8  1  0  0  0  0
  7 30  2  0  0  0  0
  8  9  1  0  0  0  0
  9 10  2  0  0  0  0
  9 29  1  0  0  0  0
 10 11  1  0  0  0  0
 10 39  1  0  0  0  0
 11 12  2  0  0  0  0
 11 40  1  0  0  0  0
 12 13  1  0  0  0  0
 12 28  1  0  0  0  0
 13 14  2  0  0  0  0
 13 15  1  0  0  0  0
 15 16  1  0  0  0  0
 15 41  1  0  0  0  0
 16 17  1  0  0  0  0
 16 42  1  0  0  0  0
 16 43  1  0  0  0  0
 17 18  2  0  0  0  0
 17 27  1  0  0  0  0
 18 19  1  0  0  0  0
 18 44  1  0  0  0  0
 19 20  2  0  0  0  0
 19 21  1  0  0  0  0
 21 22  1  0  0  0  0
 21 26  1  0  0  0  0
 22 23  2  0  0  0  0
 22 45  1  0  0  0  0
 23 24  1  0  0  0  0
 23 46  1  0  0  0  0
 24 25  2  0  0  0  0
 24 47  1  0  0  0  0
 25 26  1  0  0  0  0
 25 48  1  0  0  0  0
 26 27  2  0  0  0  0
 28 29  2  0  0  0  0
 28 49  1  0  0  0  0
 29 50  1  0  0  0  0
 30 51  1  0  0  0  0
M  END
$$$$
