
 OpenBabel01122422423D

 46 49  0  0  1  0  0  0  0  0999 V2000
    2.3288   -1.3243   -0.1080 N   0  0  0  0  0  0  0  0  0  0  0  0
    2.5063    0.0177    0.1140 C   0  0  0  0  0  0  0  0  0  0  0  0
    2.1437    0.5285    1.1731 O   0  0  0  0  0  0  0  0  0  0  0  0
    3.2641    0.7893   -0.9977 C   0  0  3  0  0  0  0  0  0  0  0  0
    2.8640    2.1969   -1.0362 N   0  0  0  0  0  0  0  0  0  0  0  0
    1.7506    2.5122   -1.7786 C   0  0  0  0  0  0  0  0  0  0  0  0
    1.1661    1.6567   -2.4393 O   0  0  0  0  0  0  0  0  0  0  0  0
    1.4292    3.8539   -1.7455 N   0  0  0  0  0  0  0  0  0  0  0  0
    0.3237    4.4119   -2.4392 C   0  0  0  0  0  0  0  0  0  0  0  0
   -0.7470    3.6566   -2.9068 C   0  0  0  0  0  0  0  0  0  0  0  0
   -1.7738    4.1400   -3.6469 N   0  0  0  0  0  0  0  0  0  0  0  0
   -1.7692    5.4421   -3.9734 C   0  0  0  0  0  0  0  0  0  0  0  0
   -2.7640    5.9637   -4.8009 C   0  0  0  0  0  0  0  0  0  0  0  0
   -3.7329    5.1600   -5.2714 F   0  0  0  0  0  0  0  0  0  0  0  0
   -2.7881    7.3004   -5.1884 C   0  0  0  0  0  0  0  0  0  0  0  0
   -1.8007    8.1620   -4.7289 C   0  0  0  0  0  0  0  0  0  0  0  0
   -0.7956    7.6756   -3.8886 C   0  0  0  0  0  0  0  0  0  0  0  0
   -0.7589    6.3154   -3.5127 C   0  0  0  0  0  0  0  0  0  0  0  0
    0.2780    5.7805   -2.7117 C   0  0  0  0  0  0  0  0  0  0  0  0
    4.7737    0.6534   -0.8907 C   0  0  0  0  0  0  0  0  0  0  0  0
    5.5378    0.7175   -2.0656 C   0  0  0  0  0  0  0  0  0  0  0  0
    6.9209    0.5329   -2.0307 C   0  0  0  0  0  0  0  0  0  0  0  0
    7.5794    0.2866   -0.8184 C   0  0  0  0  0  0  0  0  0  0  0  0
    8.9670    0.0755   -0.7699 C   0  0  0  0  0  0  0  0  0  0  0  0
    9.6083   -0.1740    0.4442 C   0  0  0  0  0  0  0  0  0  0  0  0
    8.8708   -0.2153    1.6235 C   0  0  0  0  0  0  0  0  0  0  0  0
    7.4908   -0.0067    1.5913 C   0  0  0  0  0  0  0  0  0  0  0  0
    6.8294    0.2455    0.3782 C   0  0  0  0  0  0  0  0  0  0  0  0
    5.4374    0.4435    0.3290 C   0  0  0  0  0  0  0  0  0  0  0  0
    1.8154   -1.8566    0.5819 H   0  0  0  0  0  0  0  0  0  0  0  0
    2.4951   -1.7501   -1.0107 H   0  0  0  0  0  0  0  0  0  0  0  0
    2.9677    0.3128   -1.9422 H   0  0  0  0  0  0  0  0  0  0  0  0
    2.9854    2.7035   -0.1705 H   0  0  0  0  0  0  0  0  0  0  0  0
    2.1608    4.4799   -1.4358 H   0  0  0  0  0  0  0  0  0  0  0  0
   -0.8439    2.5956   -2.7017 H   0  0  0  0  0  0  0  0  0  0  0  0
   -3.5760    7.6468   -5.8509 H   0  0  0  0  0  0  0  0  0  0  0  0
   -1.8086    9.2060   -5.0320 H   0  0  0  0  0  0  0  0  0  0  0  0
   -0.0244    8.3621   -3.5444 H   0  0  0  0  0  0  0  0  0  0  0  0
    1.0636    6.4379   -2.3489 H   0  0  0  0  0  0  0  0  0  0  0  0
    5.0528    0.8968   -3.0242 H   0  0  0  0  0  0  0  0  0  0  0  0
    7.4793    0.5718   -2.9633 H   0  0  0  0  0  0  0  0  0  0  0  0
    9.5593    0.0994   -1.6818 H   0  0  0  0  0  0  0  0  0  0  0  0
   10.6825   -0.3381    0.4675 H   0  0  0  0  0  0  0  0  0  0  0  0
    9.3679   -0.4128    2.5697 H   0  0  0  0  0  0  0  0  0  0  0  0
    6.9317   -0.0500    2.5235 H   0  0  0  0  0  0  0  0  0  0  0  0
    4.8700    0.4064    1.2585 H   0  0  0  0  0  0  0  0  0  0  0  0
  1  2  1  0  0  0  0
  1 30  1  0  0  0  0
  1 31  1  0  0  0  0
  2  3  2  0  0  0  0
  2  4  1  0  0  0  0
  4  5  1  0  0  0  0
  4 20  1  0  0  0  0
  4 32  1  0  0  0  0
  5  6  1  0  0  0  0
  5 33  1  0  0  0  0
  6  7  2  0  0  0  0
  6  8  1  0  0  0  0
  8  9  1  0  0  0  0
  8 34  1  0  0  0  0
  9 10  2  0  0  0  0
  9 19  1  0  0  0  0
 10 11  1  0  0  0  0
 10 35  1  0  0  0  0
 11 12  2  0  0  0  0
 12 13  1  0  0  0  0
 12 18  1  0  0  0  0
 13 14  1  0  0  0  0
 13 15  2  0  0  0  0
 15 16  1  0  0  0  0
 15 36  1  0  0  0  0
 16 17  2  0  0  0  0
 16 37  1  0  0  0  0
 17 18  1  0  0  0  0
 17 38  1  0  0  0  0
 18 19  2  0  0  0  0
 19 39  1  0  0  0  0
 20 21  2  0  0  0  0
 20 29  1  0  0  0  0
 21 22  1  0  0  0  0
 21 40  1  0  0  0  0
 22 23  2  0  0  0  0
 22 41  1  0  0  0  0
 23 24  1  0  0  0  0
 23 28  1  0  0  0  0
 24 25  2  0  0  0  0
 24 42  1  0  0  0  0
 25 26  1  0  0  0  0
 25 43  1  0  0  0  0
 26 27  2  0  0  0  0
 26 44  1  0  0  0  0
 27 28  1  0  0  0  0
 27 45  1  0  0  0  0
 28 29  2  0  0  0  0
 29 46  1  0  0  0  0
M  END
$$$$
