
 OpenBabel01122422423D

 45 48  0  0  0  0  0  0  0  0999 V2000
    1.0956   -0.0048   -0.0175 O   0  0  0  0  0  0  0  0  0  0  0  0
    2.3228   -0.0896   -0.0519 C   0  0  0  0  0  0  0  0  0  0  0  0
    3.0493   -0.6554    0.9642 N   0  0  0  0  0  0  0  0  0  0  0  0
    2.3930   -1.1627    2.1537 C   0  0  0  0  0  0  0  0  0  0  0  0
    2.2521   -0.1158    3.2337 C   0  0  0  0  0  0  0  0  0  0  0  0
    1.1305    0.7114    3.2861 C   0  0  0  0  0  0  0  0  0  0  0  0
    1.0188    1.6481    4.3138 C   0  0  0  0  0  0  0  0  0  0  0  0
    2.0356    1.7501    5.2659 C   0  0  0  0  0  0  0  0  0  0  0  0
    1.9629    2.6799    6.3374 N   0  0  0  0  0  0  0  0  0  0  0  0
    0.9335    3.5552    6.6211 C   0  0  0  0  0  0  0  0  0  0  0  0
    1.3035    4.2248    7.7631 C   0  0  0  0  0  0  0  0  0  0  0  0
    2.5301    3.8099    8.1910 N   0  0  0  0  0  0  0  0  0  0  0  0
    2.9038    2.8959    7.3238 C   0  0  0  0  0  0  0  0  0  0  0  0
    3.1248    0.8982    5.1285 C   0  0  0  0  0  0  0  0  0  0  0  0
    3.2601   -0.0176    4.1381 N   0  0  0  0  0  0  0  0  0  0  0  0
    3.0926    0.4888   -1.2053 C   0  0  0  0  0  0  0  0  0  0  0  0
    4.3326    0.0805   -1.5345 C   0  0  0  0  0  0  0  0  0  0  0  0
    5.0447    0.6440   -2.5917 N   0  0  0  0  0  0  0  0  0  0  0  0
    6.3634    0.1886   -2.8850 C   0  0  0  0  0  0  0  0  0  0  0  0
    6.5906   -1.1687   -3.1345 C   0  0  0  0  0  0  0  0  0  0  0  0
    7.8856   -1.6167   -3.3690 C   0  0  0  0  0  0  0  0  0  0  0  0
    8.0932   -2.9129   -3.6349 F   0  0  0  0  0  0  0  0  0  0  0  0
    8.9671   -0.7445   -3.3268 C   0  0  0  0  0  0  0  0  0  0  0  0
    8.7481    0.6095   -3.0784 C   0  0  0  0  0  0  0  0  0  0  0  0
    7.4461    1.0793   -2.8768 C   0  0  0  0  0  0  0  0  0  0  0  0
    4.4948    1.6611   -3.3939 C   0  0  0  0  0  0  0  0  0  0  0  0
    5.0464    2.2193   -4.3390 O   0  0  0  0  0  0  0  0  0  0  0  0
    3.0859    2.0352   -3.0794 C   0  0  0  0  0  0  0  0  0  0  0  0
    2.4507    1.4724   -2.0450 C   0  0  0  0  0  0  0  0  0  0  0  0
    4.0519   -0.5443    1.0177 H   0  0  0  0  0  0  0  0  0  0  0  0
    3.0079   -1.9882    2.5302 H   0  0  0  0  0  0  0  0  0  0  0  0
    1.4124   -1.5776    1.8977 H   0  0  0  0  0  0  0  0  0  0  0  0
    0.3483    0.6224    2.5365 H   0  0  0  0  0  0  0  0  0  0  0  0
    0.1300    2.2707    4.3371 H   0  0  0  0  0  0  0  0  0  0  0  0
    0.0412    3.6356    6.0203 H   0  0  0  0  0  0  0  0  0  0  0  0
    0.7470    4.9842    8.2968 H   0  0  0  0  0  0  0  0  0  0  0  0
    3.8465    2.3704    7.3749 H   0  0  0  0  0  0  0  0  0  0  0  0
    3.9623    0.8906    5.8193 H   0  0  0  0  0  0  0  0  0  0  0  0
    4.8602   -0.6815   -0.9711 H   0  0  0  0  0  0  0  0  0  0  0  0
    5.7692   -1.8750   -3.1960 H   0  0  0  0  0  0  0  0  0  0  0  0
    9.9702   -1.1246   -3.4923 H   0  0  0  0  0  0  0  0  0  0  0  0
    9.5878    1.2991   -3.0395 H   0  0  0  0  0  0  0  0  0  0  0  0
    7.2885    2.1372   -2.6767 H   0  0  0  0  0  0  0  0  0  0  0  0
    2.6198    2.7576   -3.7353 H   0  0  0  0  0  0  0  0  0  0  0  0
    1.4149    1.7384   -1.8318 H   0  0  0  0  0  0  0  0  0  0  0  0
  1  2  2  0  0  0  0
  2  3  1  0  0  0  0
  2 16  1  0  0  0  0
  3  4  1  0  0  0  0
  3 30  1  0  0  0  0
  4  5  1  0  0  0  0
  4 31  1  0  0  0  0
  4 32  1  0  0  0  0
  5  6  2  0  0  0  0
  5 15  1  0  0  0  0
  6  7  1  0  0  0  0
  6 33  1  0  0  0  0
  7  8  2  0  0  0  0
  7 34  1  0  0  0  0
  8  9  1  0  0  0  0
  8 14  1  0  0  0  0
  9 10  1  0  0  0  0
  9 13  1  0  0  0  0
 10 11  2  0  0  0  0
 10 35  1  0  0  0  0
 11 12  1  0  0  0  0
 11 36  1  0  0  0  0
 12 13  2  0  0  0  0
 13 37  1  0  0  0  0
 14 15  2  0  0  0  0
 14 38  1  0  0  0  0
 16 17  2  0  0  0  0
 16 29  1  0  0  0  0
 17 18  1  0  0  0  0
 17 39  1  0  0  0  0
 18 19  1  0  0  0  0
 18 26  1  0  0  0  0
 19 20  2  0  0  0  0
 19 25  1  0  0  0  0
 20 21  1  0  0  0  0
 20 40  1  0  0  0  0
 21 22  1  0  0  0  0
 21 23  2  0  0  0  0
 23 24  1  0  0  0  0
 23 41  1  0  0  0  0
 24 25  2  0  0  0  0
 24 42  1  0  0  0  0
 25 43  1  0  0  0  0
 26 27  2  0  0  0  0
 26 28  1  0  0  0  0
 28 29  2  0  0  0  0
 28 44  1  0  0  0  0
 29 45  1  0  0  0  0
M  END
$$$$
