
 OpenBabel01122422423D

 44 47  0  0  0  0  0  0  0  0999 V2000
   -3.0412    0.2442   -0.0471 N   0  0  0  0  0  0  0  0  0  0  0  0
   -1.8848    0.1810   -0.0378 C   0  0  0  0  0  0  0  0  0  0  0  0
   -0.4508    0.0922   -0.0203 C   0  0  0  0  0  0  0  0  0  0  0  0
    0.1708   -1.1660   -0.0366 C   0  0  0  0  0  0  0  0  0  0  0  0
    1.5693   -1.2870    0.0066 C   0  0  0  0  0  0  0  0  0  0  0  0
    2.2701   -2.5913   -0.0086 C   0  0  0  0  0  0  0  0  0  0  0  0
    3.5479   -2.7247   -0.5814 C   0  0  0  0  0  0  0  0  0  0  0  0
    4.1954   -3.9480   -0.5412 C   0  0  0  0  0  0  0  0  0  0  0  0
    3.6625   -5.0550    0.0068 N   0  0  0  0  0  0  0  0  0  0  0  0
    2.4337   -4.9235    0.5472 C   0  0  0  0  0  0  0  0  0  0  0  0
    1.7148   -3.7365    0.5686 C   0  0  0  0  0  0  0  0  0  0  0  0
    2.3137   -0.0989    0.0723 C   0  0  0  0  0  0  0  0  0  0  0  0
    1.7221    1.1611    0.0508 C   0  0  0  0  0  0  0  0  0  0  0  0
    2.4782    2.3449    0.0594 N   0  0  0  0  0  0  0  0  0  0  0  0
    3.8474    2.4794    0.0121 C   0  0  0  0  0  0  0  0  0  0  0  0
    4.6729    1.5688   -0.0228 O   0  0  0  0  0  0  0  0  0  0  0  0
    4.3282    3.7565   -0.0722 N   0  0  0  0  0  0  0  0  0  0  0  0
    3.6041    4.9116    0.0111 C   0  0  0  0  0  0  0  0  0  0  0  0
    4.0526    6.1677   -0.2912 C   0  0  0  0  0  0  0  0  0  0  0  0
    2.9451    6.9684   -0.1301 N   0  0  0  0  0  0  0  0  0  0  0  0
    2.7897    8.3379   -0.4384 C   0  0  0  0  0  0  0  0  0  0  0  0
    3.8158    9.0473   -1.0734 C   0  0  0  0  0  0  0  0  0  0  0  0
    3.6222   10.3852   -1.4138 C   0  0  0  0  0  0  0  0  0  0  0  0
    2.4156   11.0165   -1.1184 C   0  0  0  0  0  0  0  0  0  0  0  0
    1.3951   10.3158   -0.4786 C   0  0  0  0  0  0  0  0  0  0  0  0
    1.5778    8.9768   -0.1379 C   0  0  0  0  0  0  0  0  0  0  0  0
    1.9121    6.2265    0.3433 N   0  0  0  0  0  0  0  0  0  0  0  0
    2.3004    4.9655    0.3968 N   0  0  0  0  0  0  0  0  0  0  0  0
    0.3284    1.2559    0.0125 C   0  0  0  0  0  0  0  0  0  0  0  0
   -0.4521   -2.0575   -0.0917 H   0  0  0  0  0  0  0  0  0  0  0  0
    4.0550   -1.8891   -1.0559 H   0  0  0  0  0  0  0  0  0  0  0  0
    5.1907   -4.0643   -0.9613 H   0  0  0  0  0  0  0  0  0  0  0  0
    2.0249   -5.8282    0.9880 H   0  0  0  0  0  0  0  0  0  0  0  0
    0.7454   -3.7192    1.0536 H   0  0  0  0  0  0  0  0  0  0  0  0
    3.3913   -0.1777    0.1584 H   0  0  0  0  0  0  0  0  0  0  0  0
    1.9542    3.2142    0.0687 H   0  0  0  0  0  0  0  0  0  0  0  0
    5.3224    3.8139   -0.2413 H   0  0  0  0  0  0  0  0  0  0  0  0
    5.0044    6.5324   -0.6411 H   0  0  0  0  0  0  0  0  0  0  0  0
    4.7638    8.5881   -1.3379 H   0  0  0  0  0  0  0  0  0  0  0  0
    4.4123   10.9349   -1.9207 H   0  0  0  0  0  0  0  0  0  0  0  0
    2.2671   12.0590   -1.3915 H   0  0  0  0  0  0  0  0  0  0  0  0
    0.4536   10.8089   -0.2498 H   0  0  0  0  0  0  0  0  0  0  0  0
    0.7640    8.4490    0.3577 H   0  0  0  0  0  0  0  0  0  0  0  0
   -0.1577    2.2299    0.0048 H   0  0  0  0  0  0  0  0  0  0  0  0
  1  2  3  0  0  0  0
  2  3  1  0  0  0  0
  3  4  2  0  0  0  0
  3 29  1  0  0  0  0
  4  5  1  0  0  0  0
  4 30  1  0  0  0  0
  5  6  1  0  0  0  0
  5 12  2  0  0  0  0
  6  7  2  0  0  0  0
  6 11  1  0  0  0  0
  7  8  1  0  0  0  0
  7 31  1  0  0  0  0
  8  9  2  0  0  0  0
  8 32  1  0  0  0  0
  9 10  1  0  0  0  0
 10 11  2  0  0  0  0
 10 33  1  0  0  0  0
 11 34  1  0  0  0  0
 12 13  1  0  0  0  0
 12 35  1  0  0  0  0
 13 14  1  0  0  0  0
 13 29  2  0  0  0  0
 14 15  1  0  0  0  0
 14 36  1  0  0  0  0
 15 16  2  0  0  0  0
 15 17  1  0  0  0  0
 17 18  1  0  0  0  0
 17 37  1  0  0  0  0
 18 19  2  0  0  0  0
 18 28  1  0  0  0  0
 19 20  1  0  0  0  0
 19 38  1  0  0  0  0
 20 21  1  0  0  0  0
 20 27  1  0  0  0  0
 21 22  2  0  0  0  0
 21 26  1  0  0  0  0
 22 23  1  0  0  0  0
 22 39  1  0  0  0  0
 23 24  2  0  0  0  0
 23 40  1  0  0  0  0
 24 25  1  0  0  0  0
 24 41  1  0  0  0  0
 25 26  2  0  0  0  0
 25 42  1  0  0  0  0
 26 43  1  0  0  0  0
 27 28  2  0  0  0  0
 29 44  1  0  0  0  0
M  END
$$$$
