
 OpenBabel01122422423D

 49 52  0  0  0  0  0  0  0  0999 V2000
    2.3365    2.7956    0.8309 C   0  0  0  0  0  0  0  0  0  0  0  0
    3.4328    2.2723    0.0843 O   0  0  0  0  0  0  0  0  0  0  0  0
    3.5851    0.9267    0.1456 C   0  0  0  0  0  0  0  0  0  0  0  0
    2.8769    0.1483    0.7625 O   0  0  0  0  0  0  0  0  0  0  0  0
    4.7805    0.5191   -0.6422 C   0  0  0  0  0  0  0  0  0  0  0  0
    5.1517   -0.8257   -0.6624 C   0  0  0  0  0  0  0  0  0  0  0  0
    6.2836   -1.2141   -1.3718 C   0  0  0  0  0  0  0  0  0  0  0  0
    7.0602   -0.2536   -2.0332 C   0  0  0  0  0  0  0  0  0  0  0  0
    6.7074    1.1130   -2.0513 C   0  0  0  0  0  0  0  0  0  0  0  0
    7.4867    2.1167   -2.8362 C   0  0  0  0  0  0  0  0  0  0  0  0
    8.0256    1.6954   -4.0790 C   0  0  0  0  0  0  0  0  0  0  0  0
    8.7337    2.5493   -4.9252 C   0  0  0  0  0  0  0  0  0  0  0  0
    8.9044    3.8746   -4.5708 C   0  0  0  0  0  0  0  0  0  0  0  0
    8.3960    4.3305   -3.3579 C   0  0  0  0  0  0  0  0  0  0  0  0
    7.7092    3.4747   -2.4619 C   0  0  0  0  0  0  0  0  0  0  0  0
    7.2762    4.1235   -1.1573 C   0  0  0  0  0  0  0  0  0  0  0  0
    7.8028    3.4457    0.0025 N   0  0  0  0  0  0  0  0  0  0  0  0
    7.5732    3.9184    1.2740 C   0  0  0  0  0  0  0  0  0  0  0  0
    6.9338    4.9303    1.5340 O   0  0  0  0  0  0  0  0  0  0  0  0
    8.2121    3.1209    2.3709 C   0  0  0  0  0  0  0  0  0  0  0  0
    8.6735    3.7697    3.5241 C   0  0  0  0  0  0  0  0  0  0  0  0
    9.3637    3.0674    4.5247 C   0  0  0  0  0  0  0  0  0  0  0  0
    9.5243    1.6903    4.3371 C   0  0  0  0  0  0  0  0  0  0  0  0
   10.1631    0.7244    5.0805 N   0  0  0  0  0  0  0  0  0  0  0  0
    9.9726   -0.5351    4.6262 N   0  0  0  0  0  0  0  0  0  0  0  0
    9.2652   -0.3284    3.5251 C   0  0  0  0  0  0  0  0  0  0  0  0
    8.8854   -1.4237    2.8723 O   0  0  0  0  0  0  0  0  0  0  0  0
    8.9926    1.0143    3.2432 C   0  0  0  0  0  0  0  0  0  0  0  0
    8.3403    1.7313    2.2303 C   0  0  0  0  0  0  0  0  0  0  0  0
    5.5351    1.4588   -1.3652 C   0  0  0  0  0  0  0  0  0  0  0  0
    2.2055    3.8417    0.5396 H   0  0  0  0  0  0  0  0  0  0  0  0
    2.5613    2.7566    1.9003 H   0  0  0  0  0  0  0  0  0  0  0  0
    1.4115    2.2572    0.6044 H   0  0  0  0  0  0  0  0  0  0  0  0
    4.5597   -1.5714   -0.1353 H   0  0  0  0  0  0  0  0  0  0  0  0
    6.5652   -2.2641   -1.4140 H   0  0  0  0  0  0  0  0  0  0  0  0
    7.9467   -0.6042   -2.5599 H   0  0  0  0  0  0  0  0  0  0  0  0
    7.8779    0.6735   -4.4260 H   0  0  0  0  0  0  0  0  0  0  0  0
    9.1316    2.1761   -5.8650 H   0  0  0  0  0  0  0  0  0  0  0  0
    9.4305    4.5557   -5.2339 H   0  0  0  0  0  0  0  0  0  0  0  0
    8.5437    5.3803   -3.1062 H   0  0  0  0  0  0  0  0  0  0  0  0
    6.1885    4.2057   -1.0825 H   0  0  0  0  0  0  0  0  0  0  0  0
    7.6392    5.1571   -1.1021 H   0  0  0  0  0  0  0  0  0  0  0  0
    8.4993    2.7320   -0.1478 H   0  0  0  0  0  0  0  0  0  0  0  0
    8.5105    4.8403    3.6437 H   0  0  0  0  0  0  0  0  0  0  0  0
    9.7397    3.5734    5.4081 H   0  0  0  0  0  0  0  0  0  0  0  0
   10.7324    0.8569    5.9088 H   0  0  0  0  0  0  0  0  0  0  0  0
    9.1635   -2.1601    3.4423 H   0  0  0  0  0  0  0  0  0  0  0  0
    7.9338    1.1994    1.3762 H   0  0  0  0  0  0  0  0  0  0  0  0
    5.1747    2.4793   -1.4102 H   0  0  0  0  0  0  0  0  0  0  0  0
  1  2  1  0  0  0  0
  1 31  1  0  0  0  0
  1 32  1  0  0  0  0
  1 33  1  0  0  0  0
  2  3  1  0  0  0  0
  3  4  2  0  0  0  0
  3  5  1  0  0  0  0
  5  6  2  0  0  0  0
  5 30  1  0  0  0  0
  6  7  1  0  0  0  0
  6 34  1  0  0  0  0
  7  8  2  0  0  0  0
  7 35  1  0  0  0  0
  8  9  1  0  0  0  0
  8 36  1  0  0  0  0
  9 10  1  0  0  0  0
  9 30  2  0  0  0  0
 10 11  2  0  0  0  0
 10 15  1  0  0  0  0
 11 12  1  0  0  0  0
 11 37  1  0  0  0  0
 12 13  2  0  0  0  0
 12 38  1  0  0  0  0
 13 14  1  0  0  0  0
 13 39  1  0  0  0  0
 14 15  2  0  0  0  0
 14 40  1  0  0  0  0
 15 16  1  0  0  0  0
 16 17  1  0  0  0  0
 16 41  1  0  0  0  0
 16 42  1  0  0  0  0
 17 18  1  0  0  0  0
 17 43  1  0  0  0  0
 18 19  2  0  0  0  0
 18 20  1  0  0  0  0
 20 21  2  0  0  0  0
 20 29  1  0  0  0  0
 21 22  1  0  0  0  0
 21 44  1  0  0  0  0
 22 23  2  0  0  0  0
 22 45  1  0  0  0  0
 23 24  1  0  0  0  0
 23 28  1  0  0  0  0
 24 25  1  0  0  0  0
 24 46  1  0  0  0  0
 25 26  2  0  0  0  0
 26 27  1  0  0  0  0
 26 28  1  0  0  0  0
 27 47  1  0  0  0  0
 28 29  2  0  0  0  0
 29 48  1  0  0  0  0
 30 49  1  0  0  0  0
M  END
$$$$
