
 OpenBabel01122422423D

 45 48  0  0  0  0  0  0  0  0999 V2000
    9.1697   -2.6085    0.4497 C   0  0  0  0  0  0  0  0  0  0  0  0
    7.8377   -2.2743    0.0865 O   0  0  0  0  0  0  0  0  0  0  0  0
    7.1937   -1.2902    0.7862 C   0  0  0  0  0  0  0  0  0  0  0  0
    7.7472   -0.6473    1.8995 C   0  0  0  0  0  0  0  0  0  0  0  0
    7.0748    0.4077    2.5222 C   0  0  0  0  0  0  0  0  0  0  0  0
    5.8568    0.8561    2.0210 C   0  0  0  0  0  0  0  0  0  0  0  0
    5.2899    0.2304    0.9122 C   0  0  0  0  0  0  0  0  0  0  0  0
    5.9318   -0.8712    0.3187 C   0  0  0  0  0  0  0  0  0  0  0  0
    5.2432   -1.5715   -0.7054 N   0  0  0  0  0  0  0  0  0  0  0  0
    5.3477   -2.8980   -1.0493 C   0  0  0  0  0  0  0  0  0  0  0  0
    4.3743   -3.1022   -1.9934 C   0  0  0  0  0  0  0  0  0  0  0  0
    4.0439   -4.3682   -2.6055 C   0  0  0  0  0  0  0  0  0  0  0  0
    3.6848   -4.4129   -3.9589 C   0  0  0  0  0  0  0  0  0  0  0  0
    3.3673   -5.6268   -4.5841 C   0  0  0  0  0  0  0  0  0  0  0  0
    3.0514   -5.7239   -5.9595 N   0  0  0  0  0  0  0  0  0  0  0  0
    3.3569   -4.7617   -6.9131 C   0  0  0  0  0  0  0  0  0  0  0  0
    4.0133   -3.7454   -6.7142 O   0  0  0  0  0  0  0  0  0  0  0  0
    2.9056   -5.0170   -8.2965 C   0  0  0  0  0  0  0  0  0  0  0  0
    1.7817   -5.7746   -8.6302 C   0  0  0  0  0  0  0  0  0  0  0  0
    1.4118   -5.8842   -9.9726 C   0  0  0  0  0  0  0  0  0  0  0  0
    2.1780   -5.2364  -10.9302 C   0  0  0  0  0  0  0  0  0  0  0  0
    3.2733   -4.5046  -10.6410 N   0  0  0  0  0  0  0  0  0  0  0  0
    3.6043   -4.4003   -9.3313 C   0  0  0  0  0  0  0  0  0  0  0  0
    3.3562   -6.8019   -3.8225 C   0  0  0  0  0  0  0  0  0  0  0  0
    3.7147   -6.7696   -2.4731 C   0  0  0  0  0  0  0  0  0  0  0  0
    4.0634   -5.5609   -1.8780 C   0  0  0  0  0  0  0  0  0  0  0  0
    4.4013   -5.5733   -0.5792 F   0  0  0  0  0  0  0  0  0  0  0  0
    3.7405   -1.9199   -2.2482 N   0  0  0  0  0  0  0  0  0  0  0  0
    4.2388   -1.0027   -1.4253 N   0  0  0  0  0  0  0  0  0  0  0  0
    9.5279   -3.3593   -0.2618 H   0  0  0  0  0  0  0  0  0  0  0  0
    9.1996   -3.0548    1.4482 H   0  0  0  0  0  0  0  0  0  0  0  0
    9.8327   -1.7404    0.3780 H   0  0  0  0  0  0  0  0  0  0  0  0
    8.7062   -0.9442    2.3114 H   0  0  0  0  0  0  0  0  0  0  0  0
    7.5104    0.8851    3.3966 H   0  0  0  0  0  0  0  0  0  0  0  0
    5.3378    1.6801    2.5046 H   0  0  0  0  0  0  0  0  0  0  0  0
    4.3205    0.5762    0.5560 H   0  0  0  0  0  0  0  0  0  0  0  0
    6.0252   -3.5784   -0.5606 H   0  0  0  0  0  0  0  0  0  0  0  0
    3.6577   -3.4754   -4.5095 H   0  0  0  0  0  0  0  0  0  0  0  0
    2.7272   -6.6251   -6.2859 H   0  0  0  0  0  0  0  0  0  0  0  0
    1.1641   -6.2453   -7.8724 H   0  0  0  0  0  0  0  0  0  0  0  0
    0.5312   -6.4451  -10.2686 H   0  0  0  0  0  0  0  0  0  0  0  0
    1.9189   -5.2782  -11.9845 H   0  0  0  0  0  0  0  0  0  0  0  0
    4.4775   -3.7828   -9.1303 H   0  0  0  0  0  0  0  0  0  0  0  0
    3.1007   -7.7585   -4.2695 H   0  0  0  0  0  0  0  0  0  0  0  0
    3.7325   -7.6778   -1.8781 H   0  0  0  0  0  0  0  0  0  0  0  0
  1  2  1  0  0  0  0
  1 30  1  0  0  0  0
  1 31  1  0  0  0  0
  1 32  1  0  0  0  0
  2  3  1  0  0  0  0
  3  4  2  0  0  0  0
  3  8  1  0  0  0  0
  4  5  1  0  0  0  0
  4 33  1  0  0  0  0
  5  6  2  0  0  0  0
  5 34  1  0  0  0  0
  6  7  1  0  0  0  0
  6 35  1  0  0  0  0
  7  8  2  0  0  0  0
  7 36  1  0  0  0  0
  8  9  1  0  0  0  0
  9 10  1  0  0  0  0
  9 29  1  0  0  0  0
 10 11  2  0  0  0  0
 10 37  1  0  0  0  0
 11 12  1  0  0  0  0
 11 28  1  0  0  0  0
 12 13  2  0  0  0  0
 12 26  1  0  0  0  0
 13 14  1  0  0  0  0
 13 38  1  0  0  0  0
 14 15  1  0  0  0  0
 14 24  2  0  0  0  0
 15 16  1  0  0  0  0
 15 39  1  0  0  0  0
 16 17  2  0  0  0  0
 16 18  1  0  0  0  0
 18 19  2  0  0  0  0
 18 23  1  0  0  0  0
 19 20  1  0  0  0  0
 19 40  1  0  0  0  0
 20 21  2  0  0  0  0
 20 41  1  0  0  0  0
 21 22  1  0  0  0  0
 21 42  1  0  0  0  0
 22 23  2  0  0  0  0
 23 43  1  0  0  0  0
 24 25  1  0  0  0  0
 24 44  1  0  0  0  0
 25 26  2  0  0  0  0
 25 45  1  0  0  0  0
 26 27  1  0  0  0  0
 28 29  2  0  0  0  0
M  END
$$$$
