
 OpenBabel01122422423D

 43 46  0  0  0  0  0  0  0  0999 V2000
    4.3331    0.6204   -1.7174 O   0  0  0  0  0  0  0  0  0  0  0  0
    3.2217    0.6260   -1.1915 C   0  0  0  0  0  0  0  0  0  0  0  0
    3.0271    1.2665    0.1650 C   0  0  0  0  0  0  0  0  0  0  0  0
    2.0456    2.3705    0.1393 C   0  0  0  0  0  0  0  0  0  0  0  0
    2.3831    3.6504   -0.0613 N   0  0  0  0  0  0  0  0  0  0  0  0
    1.1698    4.3284    0.0971 O   0  0  0  0  0  0  0  0  0  0  0  0
    0.2276    3.3821    0.3857 C   0  0  0  0  0  0  0  0  0  0  0  0
   -1.1336    3.8349    0.6493 C   0  0  0  0  0  0  0  0  0  0  0  0
   -2.1063    2.8804    0.9917 C   0  0  0  0  0  0  0  0  0  0  0  0
   -3.4272    3.2535    1.2371 C   0  0  0  0  0  0  0  0  0  0  0  0
   -3.7902    4.5961    1.1761 C   0  0  0  0  0  0  0  0  0  0  0  0
   -2.8250    5.5713    0.8960 C   0  0  0  0  0  0  0  0  0  0  0  0
   -3.1589    7.0229    0.9576 C   0  0  0  0  0  0  0  0  0  0  0  0
   -2.5900    7.8548    0.1388 N   0  0  0  0  0  0  0  0  0  0  0  0
   -2.9185    9.1763    0.2740 N   0  0  0  0  0  0  0  0  0  0  0  0
   -3.7729    9.7017    1.2110 C   0  0  0  0  0  0  0  0  0  0  0  0
   -4.0255   10.8980    1.3028 O   0  0  0  0  0  0  0  0  0  0  0  0
   -4.3882    8.7333    2.1314 C   0  0  0  0  0  0  0  0  0  0  0  0
   -4.1068    7.4327    2.0262 C   0  0  0  0  0  0  0  0  0  0  0  0
   -1.5077    5.1872    0.5991 C   0  0  0  0  0  0  0  0  0  0  0  0
    0.7177    2.1586    0.4050 N   0  0  0  0  0  0  0  0  0  0  0  0
    2.0901    0.0130   -1.7061 N   0  0  0  0  0  0  0  0  0  0  0  0
    2.0187   -0.7738   -2.8811 C   0  0  0  0  0  0  0  0  0  0  0  0
    3.1353   -1.2835   -3.5476 C   0  0  0  0  0  0  0  0  0  0  0  0
    2.9807   -2.0434   -4.7138 C   0  0  0  0  0  0  0  0  0  0  0  0
    1.7096   -2.3019   -5.2258 C   0  0  0  0  0  0  0  0  0  0  0  0
    0.5872   -1.8164   -4.5592 C   0  0  0  0  0  0  0  0  0  0  0  0
    0.7493   -1.0699   -3.3933 C   0  0  0  0  0  0  0  0  0  0  0  0
   -0.3432   -0.6112   -2.7616 F   0  0  0  0  0  0  0  0  0  0  0  0
    3.9973    1.6324    0.5193 H   0  0  0  0  0  0  0  0  0  0  0  0
    2.7058    0.4897    0.8687 H   0  0  0  0  0  0  0  0  0  0  0  0
   -1.8346    1.8278    1.0663 H   0  0  0  0  0  0  0  0  0  0  0  0
   -4.1686    2.4967    1.4819 H   0  0  0  0  0  0  0  0  0  0  0  0
   -4.8295    4.8632    1.3482 H   0  0  0  0  0  0  0  0  0  0  0  0
   -2.4745    9.8249   -0.3668 H   0  0  0  0  0  0  0  0  0  0  0  0
   -5.0502    9.1271    2.8917 H   0  0  0  0  0  0  0  0  0  0  0  0
   -4.5186    6.7086    2.7143 H   0  0  0  0  0  0  0  0  0  0  0  0
   -0.7731    5.9542    0.3559 H   0  0  0  0  0  0  0  0  0  0  0  0
    1.1920    0.2418   -1.2835 H   0  0  0  0  0  0  0  0  0  0  0  0
    4.1435   -1.1202   -3.1790 H   0  0  0  0  0  0  0  0  0  0  0  0
    3.8615   -2.4307   -5.2222 H   0  0  0  0  0  0  0  0  0  0  0  0
    1.5984   -2.8808   -6.1392 H   0  0  0  0  0  0  0  0  0  0  0  0
   -0.4098   -2.0091   -4.9425 H   0  0  0  0  0  0  0  0  0  0  0  0
  1  2  2  0  0  0  0
  2  3  1  0  0  0  0
  2 22  1  0  0  0  0
  3  4  1  0  0  0  0
  3 30  1  0  0  0  0
  3 31  1  0  0  0  0
  4  5  2  0  0  0  0
  4 21  1  0  0  0  0
  5  6  1  0  0  0  0
  6  7  1  0  0  0  0
  7  8  1  0  0  0  0
  7 21  2  0  0  0  0
  8  9  2  0  0  0  0
  8 20  1  0  0  0  0
  9 10  1  0  0  0  0
  9 32  1  0  0  0  0
 10 11  2  0  0  0  0
 10 33  1  0  0  0  0
 11 12  1  0  0  0  0
 11 34  1  0  0  0  0
 12 13  1  0  0  0  0
 12 20  2  0  0  0  0
 13 14  2  0  0  0  0
 13 19  1  0  0  0  0
 14 15  1  0  0  0  0
 15 16  1  0  0  0  0
 15 35  1  0  0  0  0
 16 17  2  0  0  0  0
 16 18  1  0  0  0  0
 18 19  2  0  0  0  0
 18 36  1  0  0  0  0
 19 37  1  0  0  0  0
 20 38  1  0  0  0  0
 22 23  1  0  0  0  0
 22 39  1  0  0  0  0
 23 24  2  0  0  0  0
 23 28  1  0  0  0  0
 24 25  1  0  0  0  0
 24 40  1  0  0  0  0
 25 26  2  0  0  0  0
 25 41  1  0  0  0  0
 26 27  1  0  0  0  0
 26 42  1  0  0  0  0
 27 28  2  0  0  0  0
 27 43  1  0  0  0  0
 28 29  1  0  0  0  0
M  END
$$$$
