
 OpenBabel01122422423D

 47 50  0  0  0  0  0  0  0  0999 V2000
    3.1843    1.9941   -0.6501 N   0  0  0  0  0  0  0  0  0  0  0  0
    3.0465    0.6677   -0.0535 C   0  0  0  0  0  0  0  0  0  0  0  0
    3.3428   -0.4139   -1.0611 C   0  0  0  0  0  0  0  0  0  0  0  0
    4.5698   -0.4583   -1.7263 C   0  0  0  0  0  0  0  0  0  0  0  0
    4.7782   -1.3562   -2.7841 C   0  0  0  0  0  0  0  0  0  0  0  0
    3.7860   -2.2727   -3.1955 C   0  0  0  0  0  0  0  0  0  0  0  0
    3.9563   -3.1264   -4.4265 C   0  0  0  0  0  0  0  0  0  0  0  0
    5.2543   -3.5239   -4.8171 C   0  0  0  0  0  0  0  0  0  0  0  0
    5.4891   -4.2676   -5.9802 C   0  0  0  0  0  0  0  0  0  0  0  0
    4.4283   -4.6798   -6.7762 C   0  0  0  0  0  0  0  0  0  0  0  0
    3.1328   -4.3180   -6.4380 C   0  0  0  0  0  0  0  0  0  0  0  0
    2.8964   -3.5322   -5.2906 C   0  0  0  0  0  0  0  0  0  0  0  0
    1.5423   -2.9422   -5.2005 C   0  0  0  0  0  0  0  0  0  0  0  0
    1.5077   -1.7199   -5.1034 O   0  0  0  0  0  0  0  0  0  0  0  0
    0.4404   -3.8030   -5.2609 N   0  0  0  0  0  0  0  0  0  0  0  0
   -0.8806   -3.4217   -4.9158 C   0  0  0  0  0  0  0  0  0  0  0  0
   -1.1785   -2.0894   -4.5959 C   0  0  0  0  0  0  0  0  0  0  0  0
   -2.3417   -1.7533   -3.9233 C   0  0  0  0  0  0  0  0  0  0  0  0
   -3.2672   -2.7289   -3.7176 C   0  0  0  0  0  0  0  0  0  0  0  0
   -4.5115   -2.3602   -3.0096 C   0  0  0  0  0  0  0  0  0  0  0  0
   -5.6146   -2.8267   -3.5940 C   0  0  0  0  0  0  0  0  0  0  0  0
   -5.5634   -4.0453   -4.2420 N   0  0  0  0  0  0  0  0  0  0  0  0
   -4.3967   -4.7699   -4.4535 C   0  0  0  0  0  0  0  0  0  0  0  0
   -4.4022   -5.9224   -4.8729 O   0  0  0  0  0  0  0  0  0  0  0  0
   -3.1402   -3.9868   -4.2722 C   0  0  0  0  0  0  0  0  0  0  0  0
   -1.8979   -4.3798   -4.8240 C   0  0  0  0  0  0  0  0  0  0  0  0
    2.6227   -2.3078   -2.4089 C   0  0  0  0  0  0  0  0  0  0  0  0
    2.3853   -1.3756   -1.3874 C   0  0  0  0  0  0  0  0  0  0  0  0
    2.8373    2.6962   -0.0015 H   0  0  0  0  0  0  0  0  0  0  0  0
    2.5862    2.0405   -1.4762 H   0  0  0  0  0  0  0  0  0  0  0  0
    2.0239    0.5619    0.3270 H   0  0  0  0  0  0  0  0  0  0  0  0
    3.7240    0.5723    0.8013 H   0  0  0  0  0  0  0  0  0  0  0  0
    5.3508    0.2550   -1.4664 H   0  0  0  0  0  0  0  0  0  0  0  0
    5.7251   -1.2768   -3.3118 H   0  0  0  0  0  0  0  0  0  0  0  0
    6.1247   -3.2332   -4.2312 H   0  0  0  0  0  0  0  0  0  0  0  0
    6.5099   -4.5049   -6.2697 H   0  0  0  0  0  0  0  0  0  0  0  0
    4.6158   -5.2426   -7.6869 H   0  0  0  0  0  0  0  0  0  0  0  0
    2.3178   -4.5758   -7.1069 H   0  0  0  0  0  0  0  0  0  0  0  0
    0.6166   -4.8008   -5.3646 H   0  0  0  0  0  0  0  0  0  0  0  0
   -0.5091   -1.2702   -4.8339 H   0  0  0  0  0  0  0  0  0  0  0  0
   -2.4995   -0.7127   -3.6225 H   0  0  0  0  0  0  0  0  0  0  0  0
   -4.3829   -2.6434   -1.9550 H   0  0  0  0  0  0  0  0  0  0  0  0
   -6.5445   -2.2898   -3.5693 H   0  0  0  0  0  0  0  0  0  0  0  0
   -6.4319   -4.4641   -4.5570 H   0  0  0  0  0  0  0  0  0  0  0  0
   -1.7755   -5.3951   -5.1887 H   0  0  0  0  0  0  0  0  0  0  0  0
    1.8331   -3.0255   -2.6158 H   0  0  0  0  0  0  0  0  0  0  0  0
    1.4211   -1.3862   -0.8842 H   0  0  0  0  0  0  0  0  0  0  0  0
  1  2  1  0  0  0  0
  1 29  1  0  0  0  0
  1 30  1  0  0  0  0
  2  3  1  0  0  0  0
  2 31  1  0  0  0  0
  2 32  1  0  0  0  0
  3  4  2  0  0  0  0
  3 28  1  0  0  0  0
  4  5  1  0  0  0  0
  4 33  1  0  0  0  0
  5  6  2  0  0  0  0
  5 34  1  0  0  0  0
  6  7  1  0  0  0  0
  6 27  1  0  0  0  0
  7  8  2  0  0  0  0
  7 12  1  0  0  0  0
  8  9  1  0  0  0  0
  8 35  1  0  0  0  0
  9 10  2  0  0  0  0
  9 36  1  0  0  0  0
 10 11  1  0  0  0  0
 10 37  1  0  0  0  0
 11 12  2  0  0  0  0
 11 38  1  0  0  0  0
 12 13  1  0  0  0  0
 13 14  2  0  0  0  0
 13 15  1  0  0  0  0
 15 16  1  0  0  0  0
 15 39  1  0  0  0  0
 16 17  2  0  0  0  0
 16 26  1  0  0  0  0
 17 18  1  0  0  0  0
 17 40  1  0  0  0  0
 18 19  2  0  0  0  0
 18 41  1  0  0  0  0
 19 20  1  0  0  0  0
 19 25  1  0  0  0  0
 20 21  2  0  0  0  0
 20 42  1  0  0  0  0
 21 22  1  0  0  0  0
 21 43  1  0  0  0  0
 22 23  1  0  0  0  0
 22 44  1  0  0  0  0
 23 24  2  0  0  0  0
 23 25  1  0  0  0  0
 25 26  2  0  0  0  0
 26 45  1  0  0  0  0
 27 28  2  0  0  0  0
 27 46  1  0  0  0  0
 28 47  1  0  0  0  0
M  END
$$$$
