
 OpenBabel01122422353D

 48 51  0  0  0  0  0  0  0  0999 V2000
    2.1918    0.2929    1.2857 O   0  0  0  0  0  0  0  0  0  0  0  0
    2.2875    0.0653    0.0857 C   0  0  0  0  0  0  0  0  0  0  0  0
    1.6259    0.8430   -0.8311 N   0  0  0  0  0  0  0  0  0  0  0  0
    0.8493    2.0030   -0.4449 C   0  0  0  0  0  0  0  0  0  0  0  0
   -0.6118    1.8464   -0.7490 C   0  0  0  0  0  0  0  0  0  0  0  0
   -1.3666    0.7842   -0.2315 C   0  0  0  0  0  0  0  0  0  0  0  0
   -2.7286    0.7213   -0.5008 C   0  0  0  0  0  0  0  0  0  0  0  0
   -3.5094   -0.2829   -0.0219 O   0  0  0  0  0  0  0  0  0  0  0  0
   -3.3027    1.7210   -1.2708 C   0  0  0  0  0  0  0  0  0  0  0  0
   -2.6097    2.7645   -1.7837 N   0  0  0  0  0  0  0  0  0  0  0  0
   -1.2860    2.8006   -1.5078 C   0  0  0  0  0  0  0  0  0  0  0  0
    3.0907   -1.0896   -0.4578 C   0  0  0  0  0  0  0  0  0  0  0  0
    4.1381   -1.6221    0.2215 C   0  0  0  0  0  0  0  0  0  0  0  0
    4.6242   -1.0499    1.4960 C   0  0  0  0  0  0  0  0  0  0  0  0
    4.0387   -1.4446    2.7114 C   0  0  0  0  0  0  0  0  0  0  0  0
    4.6067   -1.0642    3.9274 C   0  0  0  0  0  0  0  0  0  0  0  0
    5.7286   -0.2393    3.9401 C   0  0  0  0  0  0  0  0  0  0  0  0
    6.2674    0.2260    2.7400 C   0  0  0  0  0  0  0  0  0  0  0  0
    5.7207   -0.1782    1.5187 C   0  0  0  0  0  0  0  0  0  0  0  0
    4.8345   -2.8175   -0.4183 C   0  0  0  0  0  0  0  0  0  0  0  0
    6.0098   -3.5003    0.2505 C   0  0  0  0  0  0  0  0  0  0  0  0
    6.1196   -3.6934    1.6301 C   0  0  0  0  0  0  0  0  0  0  0  0
    7.2532   -4.2792    2.2007 C   0  0  0  0  0  0  0  0  0  0  0  0
    8.2591   -4.7787    1.3854 C   0  0  0  0  0  0  0  0  0  0  0  0
    8.1266   -4.6922    0.0024 C   0  0  0  0  0  0  0  0  0  0  0  0
    7.0168   -4.0479   -0.5612 C   0  0  0  0  0  0  0  0  0  0  0  0
    4.4861   -3.3063   -1.5728 N   0  0  0  0  0  0  0  0  0  0  0  0
    3.4535   -2.7320   -2.2183 N   0  0  0  0  0  0  0  0  0  0  0  0
    2.7297   -1.6622   -1.7815 C   0  0  0  0  0  0  0  0  0  0  0  0
    1.8312   -1.1912   -2.4767 O   0  0  0  0  0  0  0  0  0  0  0  0
    1.5725    0.5280   -1.7988 H   0  0  0  0  0  0  0  0  0  0  0  0
    1.2695    2.8460   -1.0034 H   0  0  0  0  0  0  0  0  0  0  0  0
    0.9717    2.2273    0.6215 H   0  0  0  0  0  0  0  0  0  0  0  0
   -0.8813    0.0318    0.3825 H   0  0  0  0  0  0  0  0  0  0  0  0
   -2.9507   -0.8931    0.4877 H   0  0  0  0  0  0  0  0  0  0  0  0
   -4.3634    1.7066   -1.4984 H   0  0  0  0  0  0  0  0  0  0  0  0
   -0.7679    3.6602   -1.9263 H   0  0  0  0  0  0  0  0  0  0  0  0
    3.1698   -2.0995    2.7137 H   0  0  0  0  0  0  0  0  0  0  0  0
    4.1844   -1.4292    4.8597 H   0  0  0  0  0  0  0  0  0  0  0  0
    6.1813    0.0442    4.8869 H   0  0  0  0  0  0  0  0  0  0  0  0
    7.1283    0.8899    2.7572 H   0  0  0  0  0  0  0  0  0  0  0  0
    6.1731    0.1733    0.5947 H   0  0  0  0  0  0  0  0  0  0  0  0
    5.3247   -3.4258    2.3073 H   0  0  0  0  0  0  0  0  0  0  0  0
    7.3320   -4.3564    3.2827 H   0  0  0  0  0  0  0  0  0  0  0  0
    9.1290   -5.2569    1.8277 H   0  0  0  0  0  0  0  0  0  0  0  0
    8.8864   -5.1287   -0.6406 H   0  0  0  0  0  0  0  0  0  0  0  0
    6.9418   -3.9918   -1.6454 H   0  0  0  0  0  0  0  0  0  0  0  0
    3.2041   -3.1262   -3.1199 H   0  0  0  0  0  0  0  0  0  0  0  0
  1  2  2  0  0  0  0
  2  3  1  0  0  0  0
  2 12  1  0  0  0  0
  3  4  1  0  0  0  0
  3 31  1  0  0  0  0
  4  5  1  0  0  0  0
  4 32  1  0  0  0  0
  4 33  1  0  0  0  0
  5  6  2  0  0  0  0
  5 11  1  0  0  0  0
  6  7  1  0  0  0  0
  6 34  1  0  0  0  0
  7  8  1  0  0  0  0
  7  9  2  0  0  0  0
  8 35  1  0  0  0  0
  9 10  1  0  0  0  0
  9 36  1  0  0  0  0
 10 11  2  0  0  0  0
 11 37  1  0  0  0  0
 12 13  2  0  0  0  0
 12 29  1  0  0  0  0
 13 14  1  0  0  0  0
 13 20  1  0  0  0  0
 14 15  2  0  0  0  0
 14 19  1  0  0  0  0
 15 16  1  0  0  0  0
 15 38  1  0  0  0  0
 16 17  2  0  0  0  0
 16 39  1  0  0  0  0
 17 18  1  0  0  0  0
 17 40  1  0  0  0  0
 18 19  2  0  0  0  0
 18 41  1  0  0  0  0
 19 42  1  0  0  0  0
 20 21  1  0  0  0  0
 20 27  2  0  0  0  0
 21 22  2  0  0  0  0
 21 26  1  0  0  0  0
 22 23  1  0  0  0  0
 22 43  1  0  0  0  0
 23 24  2  0  0  0  0
 23 44  1  0  0  0  0
 24 25  1  0  0  0  0
 24 45  1  0  0  0  0
 25 26  2  0  0  0  0
 25 46  1  0  0  0  0
 26 47  1  0  0  0  0
 27 28  1  0  0  0  0
 28 29  1  0  0  0  0
 28 48  1  0  0  0  0
 29 30  2  0  0  0  0
M  END
$$$$
