
 OpenBabel01122422423D

 49 52  0  0  0  0  0  0  0  0999 V2000
    1.2687   -0.8531   -1.0220 C   0  0  0  0  0  0  0  0  0  0  0  0
    2.5601   -0.3951   -0.5294 N   0  0  0  0  0  0  0  0  0  0  0  0
    3.1479   -0.8967    0.7218 C   0  0  0  0  0  0  0  0  0  0  0  0
    2.3087   -1.9195    1.4634 C   0  0  0  0  0  0  0  0  0  0  0  0
    2.4536   -3.2936    1.2105 C   0  0  0  0  0  0  0  0  0  0  0  0
    1.6494   -4.2347    1.8674 C   0  0  0  0  0  0  0  0  0  0  0  0
    0.6829   -3.8031    2.7808 C   0  0  0  0  0  0  0  0  0  0  0  0
   -0.2397   -4.7270    3.4972 C   0  0  0  0  0  0  0  0  0  0  0  0
   -0.6340   -4.3779    4.6083 O   0  0  0  0  0  0  0  0  0  0  0  0
   -0.5892   -5.8977    2.8485 N   0  0  0  0  0  0  0  0  0  0  0  0
   -1.5178   -6.8519    3.3229 C   0  0  0  0  0  0  0  0  0  0  0  0
   -2.4161   -6.6016    4.3630 C   0  0  0  0  0  0  0  0  0  0  0  0
   -3.2935   -7.5937    4.8168 C   0  0  0  0  0  0  0  0  0  0  0  0
   -3.2759   -8.8656    4.2312 C   0  0  0  0  0  0  0  0  0  0  0  0
   -4.1437   -9.8685    4.7126 N   0  0  0  0  0  0  0  0  0  0  0  0
   -4.2479  -11.1931    4.3667 C   0  0  0  0  0  0  0  0  0  0  0  0
   -5.2268  -11.7476    5.0444 N   0  0  0  0  0  0  0  0  0  0  0  0
   -5.7298  -10.7587    5.8450 N   0  0  0  0  0  0  0  0  0  0  0  0
   -5.0718   -9.6224    5.6686 N   0  0  0  0  0  0  0  0  0  0  0  0
   -2.4003   -9.1033    3.1747 C   0  0  0  0  0  0  0  0  0  0  0  0
   -2.3493  -10.2934    2.5594 F   0  0  0  0  0  0  0  0  0  0  0  0
   -1.5423   -8.1037    2.7077 C   0  0  0  0  0  0  0  0  0  0  0  0
    0.5639   -2.4366    3.0659 C   0  0  0  0  0  0  0  0  0  0  0  0
    1.3636   -1.5000    2.4071 C   0  0  0  0  0  0  0  0  0  0  0  0
    3.0169    0.8552   -0.9655 C   0  0  0  0  0  0  0  0  0  0  0  0
    2.1442    1.9006   -1.3085 C   0  0  0  0  0  0  0  0  0  0  0  0
    2.6193    3.1323   -1.7741 C   0  0  0  0  0  0  0  0  0  0  0  0
    3.9860    3.3412   -1.9193 C   0  0  0  0  0  0  0  0  0  0  0  0
    4.8738    2.3257   -1.5824 C   0  0  0  0  0  0  0  0  0  0  0  0
    4.3924    1.1021   -1.1019 C   0  0  0  0  0  0  0  0  0  0  0  0
    1.1124   -1.9204   -0.8434 H   0  0  0  0  0  0  0  0  0  0  0  0
    1.2172   -0.7321   -2.1113 H   0  0  0  0  0  0  0  0  0  0  0  0
    0.4378   -0.3043   -0.5663 H   0  0  0  0  0  0  0  0  0  0  0  0
    3.3455   -0.0653    1.4133 H   0  0  0  0  0  0  0  0  0  0  0  0
    4.1249   -1.3476    0.5050 H   0  0  0  0  0  0  0  0  0  0  0  0
    3.1986   -3.6356    0.4934 H   0  0  0  0  0  0  0  0  0  0  0  0
    1.8149   -5.2880    1.6669 H   0  0  0  0  0  0  0  0  0  0  0  0
   -0.1258   -6.1153    1.9771 H   0  0  0  0  0  0  0  0  0  0  0  0
   -2.4770   -5.6265    4.8399 H   0  0  0  0  0  0  0  0  0  0  0  0
   -3.9708   -7.3469    5.6327 H   0  0  0  0  0  0  0  0  0  0  0  0
   -3.6117  -11.6945    3.6558 H   0  0  0  0  0  0  0  0  0  0  0  0
   -0.8808   -8.3434    1.8802 H   0  0  0  0  0  0  0  0  0  0  0  0
   -0.1624   -2.0927    3.8014 H   0  0  0  0  0  0  0  0  0  0  0  0
    1.2429   -0.4442    2.6378 H   0  0  0  0  0  0  0  0  0  0  0  0
    1.0701    1.7857   -1.1960 H   0  0  0  0  0  0  0  0  0  0  0  0
    1.9174    3.9232   -2.0242 H   0  0  0  0  0  0  0  0  0  0  0  0
    4.3565    4.2904   -2.2970 H   0  0  0  0  0  0  0  0  0  0  0  0
    5.9431    2.4758   -1.7039 H   0  0  0  0  0  0  0  0  0  0  0  0
    5.1107    0.3190   -0.8766 H   0  0  0  0  0  0  0  0  0  0  0  0
  1  2  1  0  0  0  0
  1 31  1  0  0  0  0
  1 32  1  0  0  0  0
  1 33  1  0  0  0  0
  2  3  1  0  0  0  0
  2 25  1  0  0  0  0
  3  4  1  0  0  0  0
  3 34  1  0  0  0  0
  3 35  1  0  0  0  0
  4  5  2  0  0  0  0
  4 24  1  0  0  0  0
  5  6  1  0  0  0  0
  5 36  1  0  0  0  0
  6  7  2  0  0  0  0
  6 37  1  0  0  0  0
  7  8  1  0  0  0  0
  7 23  1  0  0  0  0
  8  9  2  0  0  0  0
  8 10  1  0  0  0  0
 10 11  1  0  0  0  0
 10 38  1  0  0  0  0
 11 12  2  0  0  0  0
 11 22  1  0  0  0  0
 12 13  1  0  0  0  0
 12 39  1  0  0  0  0
 13 14  2  0  0  0  0
 13 40  1  0  0  0  0
 14 15  1  0  0  0  0
 14 20  1  0  0  0  0
 15 16  1  0  0  0  0
 15 19  1  0  0  0  0
 16 17  2  0  0  0  0
 16 41  1  0  0  0  0
 17 18  1  0  0  0  0
 18 19  2  0  0  0  0
 20 21  1  0  0  0  0
 20 22  2  0  0  0  0
 22 42  1  0  0  0  0
 23 24  2  0  0  0  0
 23 43  1  0  0  0  0
 24 44  1  0  0  0  0
 25 26  2  0  0  0  0
 25 30  1  0  0  0  0
 26 27  1  0  0  0  0
 26 45  1  0  0  0  0
 27 28  2  0  0  0  0
 27 46  1  0  0  0  0
 28 29  1  0  0  0  0
 28 47  1  0  0  0  0
 29 30  2  0  0  0  0
 29 48  1  0  0  0  0
 30 49  1  0  0  0  0
M  END
$$$$
