
 OpenBabel01122422423D

 43 46  0  0  0  0  0  0  0  0999 V2000
    3.4472    4.0899    5.8001 N   0  0  0  0  0  0  0  0  0  0  0  0
    3.4023    4.1810    4.6407 C   0  0  0  0  0  0  0  0  0  0  0  0
    3.3157    4.3069    3.2196 C   0  0  0  0  0  0  0  0  0  0  0  0
    4.2064    5.1299    2.5369 C   0  0  0  0  0  0  0  0  0  0  0  0
    4.0703    5.2837    1.1617 C   0  0  0  0  0  0  0  0  0  0  0  0
    4.9251    6.0727    0.4978 F   0  0  0  0  0  0  0  0  0  0  0  0
    3.0395    4.6561    0.4652 C   0  0  0  0  0  0  0  0  0  0  0  0
    2.1267    3.8372    1.1451 C   0  0  0  0  0  0  0  0  0  0  0  0
    0.9336    3.2605    0.4216 C   0  0  0  0  0  0  0  0  0  0  0  0
   -0.2168    4.1262    0.4993 N   0  0  0  0  0  0  0  0  0  0  0  0
   -0.4540    5.2018   -0.3847 C   0  0  0  0  0  0  0  0  0  0  0  0
    0.2911    5.5724   -1.2808 O   0  0  0  0  0  0  0  0  0  0  0  0
   -1.7448    5.7027   -0.0625 N   0  0  0  0  0  0  0  0  0  0  0  0
   -2.3597    6.7830   -0.7093 C   0  0  0  0  0  0  0  0  0  0  0  0
   -3.6247    6.6677   -1.2909 C   0  0  0  0  0  0  0  0  0  0  0  0
   -4.1248    7.7071   -2.0852 C   0  0  0  0  0  0  0  0  0  0  0  0
   -3.3795    8.8784   -2.2839 C   0  0  0  0  0  0  0  0  0  0  0  0
   -3.9431    9.9159   -3.1872 C   0  0  0  0  0  0  0  0  0  0  0  0
   -5.1418   10.0391   -3.3772 O   0  0  0  0  0  0  0  0  0  0  0  0
   -3.0203   10.6692   -3.8217 O   0  0  0  0  0  0  0  0  0  0  0  0
   -2.1518    9.0304   -1.6330 C   0  0  0  0  0  0  0  0  0  0  0  0
   -1.6386    7.9744   -0.8729 C   0  0  0  0  0  0  0  0  0  0  0  0
   -2.2989    4.9187    0.9634 C   0  0  0  0  0  0  0  0  0  0  0  0
   -3.5194    4.9865    1.6081 C   0  0  0  0  0  0  0  0  0  0  0  0
   -3.7699    4.0526    2.6207 C   0  0  0  0  0  0  0  0  0  0  0  0
   -2.7967    3.1046    2.9915 C   0  0  0  0  0  0  0  0  0  0  0  0
   -1.5568    3.0593    2.3481 C   0  0  0  0  0  0  0  0  0  0  0  0
   -1.3361    3.9658    1.3308 C   0  0  0  0  0  0  0  0  0  0  0  0
    2.2959    3.6402    2.5236 C   0  0  0  0  0  0  0  0  0  0  0  0
    5.0011    5.6646    3.0501 H   0  0  0  0  0  0  0  0  0  0  0  0
    2.9394    4.8389   -0.6033 H   0  0  0  0  0  0  0  0  0  0  0  0
    0.6888    2.2654    0.8089 H   0  0  0  0  0  0  0  0  0  0  0  0
    1.1864    3.1228   -0.6372 H   0  0  0  0  0  0  0  0  0  0  0  0
   -4.1947    5.7456   -1.2125 H   0  0  0  0  0  0  0  0  0  0  0  0
   -5.0879    7.5872   -2.5809 H   0  0  0  0  0  0  0  0  0  0  0  0
   -2.0967   10.3733   -3.7322 H   0  0  0  0  0  0  0  0  0  0  0  0
   -1.5788    9.9506   -1.6980 H   0  0  0  0  0  0  0  0  0  0  0  0
   -0.6691    8.0912   -0.3898 H   0  0  0  0  0  0  0  0  0  0  0  0
   -4.2712    5.7235    1.3504 H   0  0  0  0  0  0  0  0  0  0  0  0
   -4.7309    4.0566    3.1325 H   0  0  0  0  0  0  0  0  0  0  0  0
   -3.0163    2.3954    3.7878 H   0  0  0  0  0  0  0  0  0  0  0  0
   -0.8121    2.3344    2.6510 H   0  0  0  0  0  0  0  0  0  0  0  0
    1.6103    2.9912    3.0682 H   0  0  0  0  0  0  0  0  0  0  0  0
  1  2  3  0  0  0  0
  2  3  1  0  0  0  0
  3  4  2  0  0  0  0
  3 29  1  0  0  0  0
  4  5  1  0  0  0  0
  4 30  1  0  0  0  0
  5  6  1  0  0  0  0
  5  7  2  0  0  0  0
  7  8  1  0  0  0  0
  7 31  1  0  0  0  0
  8  9  1  0  0  0  0
  8 29  2  0  0  0  0
  9 10  1  0  0  0  0
  9 32  1  0  0  0  0
  9 33  1  0  0  0  0
 10 11  1  0  0  0  0
 10 28  1  0  0  0  0
 11 12  2  0  0  0  0
 11 13  1  0  0  0  0
 13 14  1  0  0  0  0
 13 23  1  0  0  0  0
 14 15  2  0  0  0  0
 14 22  1  0  0  0  0
 15 16  1  0  0  0  0
 15 34  1  0  0  0  0
 16 17  2  0  0  0  0
 16 35  1  0  0  0  0
 17 18  1  0  0  0  0
 17 21  1  0  0  0  0
 18 19  2  0  0  0  0
 18 20  1  0  0  0  0
 20 36  1  0  0  0  0
 21 22  2  0  0  0  0
 21 37  1  0  0  0  0
 22 38  1  0  0  0  0
 23 24  2  0  0  0  0
 23 28  1  0  0  0  0
 24 25  1  0  0  0  0
 24 39  1  0  0  0  0
 25 26  2  0  0  0  0
 25 40  1  0  0  0  0
 26 27  1  0  0  0  0
 26 41  1  0  0  0  0
 27 28  2  0  0  0  0
 27 42  1  0  0  0  0
 29 43  1  0  0  0  0
M  END
$$$$
