
 OpenBabel01122422423D

 48 51  0  0  0  0  0  0  0  0999 V2000
    1.0148   -0.5023    0.2473 O   0  0  0  0  0  0  0  0  0  0  0  0
    2.2084   -0.2618    0.2407 C   0  0  0  0  0  0  0  0  0  0  0  0
    2.8877    0.4701    1.1968 N   0  0  0  0  0  0  0  0  0  0  0  0
    2.3667    1.0997    2.3151 C   0  0  0  0  0  0  0  0  0  0  0  0
    1.0459    0.8891    2.7236 C   0  0  0  0  0  0  0  0  0  0  0  0
    0.5156    1.5311    3.8370 C   0  0  0  0  0  0  0  0  0  0  0  0
    1.2912    2.4021    4.5833 C   0  0  0  0  0  0  0  0  0  0  0  0
    0.7103    3.1025    5.7835 C   0  0  0  0  0  0  0  0  0  0  0  0
    1.3720    2.6715    6.9627 O   0  0  0  0  0  0  0  0  0  0  0  0
    2.6223    2.6250    4.1931 C   0  0  0  0  0  0  0  0  0  0  0  0
    3.1786    1.9824    3.0664 C   0  0  0  0  0  0  0  0  0  0  0  0
    4.5808    2.3767    2.6672 C   0  0  0  0  0  0  0  0  0  0  0  0
    5.2838    1.2950    2.0575 O   0  0  0  0  0  0  0  0  0  0  0  0
    2.9784   -0.7067   -0.9454 C   0  0  0  0  0  0  0  0  0  0  0  0
    2.3535   -0.5217   -2.1641 C   0  0  0  0  0  0  0  0  0  0  0  0
    2.9775   -0.9311   -3.3254 C   0  0  0  0  0  0  0  0  0  0  0  0
    4.2322   -1.5496   -3.2796 C   0  0  0  0  0  0  0  0  0  0  0  0
    4.8470   -1.8918   -4.5058 N   0  0  0  0  0  0  0  0  0  0  0  0
    4.6542   -1.1702   -5.6807 C   0  0  0  0  0  0  0  0  0  0  0  0
    5.6519   -1.5623   -6.5167 C   0  0  0  0  0  0  0  0  0  0  0  0
    5.7739   -2.9247   -6.2338 C   0  0  0  0  0  0  0  0  0  0  0  0
    6.0188   -4.0967   -6.9708 C   0  0  0  0  0  0  0  0  0  0  0  0
    6.2274   -5.2839   -6.2758 C   0  0  0  0  0  0  0  0  0  0  0  0
    6.3533   -5.2746   -4.8874 C   0  0  0  0  0  0  0  0  0  0  0  0
    6.0697   -4.1261   -4.1345 C   0  0  0  0  0  0  0  0  0  0  0  0
    5.6215   -3.0027   -4.8404 C   0  0  0  0  0  0  0  0  0  0  0  0
    4.8595   -1.7738   -2.0380 C   0  0  0  0  0  0  0  0  0  0  0  0
    4.2270   -1.3417   -0.8620 C   0  0  0  0  0  0  0  0  0  0  0  0
    3.9078    0.6387    1.0127 H   0  0  0  0  0  0  0  0  0  0  0  0
    0.3880    0.2095    2.1921 H   0  0  0  0  0  0  0  0  0  0  0  0
   -0.5281    1.3380    4.0987 H   0  0  0  0  0  0  0  0  0  0  0  0
   -0.3568    2.8761    5.8928 H   0  0  0  0  0  0  0  0  0  0  0  0
    0.8142    4.1849    5.6817 H   0  0  0  0  0  0  0  0  0  0  0  0
    1.4312    1.7012    6.9107 H   0  0  0  0  0  0  0  0  0  0  0  0
    3.2255    3.3170    4.7793 H   0  0  0  0  0  0  0  0  0  0  0  0
    5.1566    2.7132    3.5377 H   0  0  0  0  0  0  0  0  0  0  0  0
    4.5357    3.2038    1.9486 H   0  0  0  0  0  0  0  0  0  0  0  0
    6.0774    1.1460    2.6037 H   0  0  0  0  0  0  0  0  0  0  0  0
    1.3669   -0.0506   -2.2284 H   0  0  0  0  0  0  0  0  0  0  0  0
    2.4431   -0.7979   -4.2717 H   0  0  0  0  0  0  0  0  0  0  0  0
    3.9510   -0.3523   -5.7445 H   0  0  0  0  0  0  0  0  0  0  0  0
    6.0089   -1.0134   -7.3896 H   0  0  0  0  0  0  0  0  0  0  0  0
    5.9336   -4.0888   -8.0545 H   0  0  0  0  0  0  0  0  0  0  0  0
    6.3030   -6.2207   -6.8221 H   0  0  0  0  0  0  0  0  0  0  0  0
    6.6080   -6.1957   -4.3686 H   0  0  0  0  0  0  0  0  0  0  0  0
    6.1037   -4.1617   -3.0543 H   0  0  0  0  0  0  0  0  0  0  0  0
    5.8417   -2.2120   -1.9704 H   0  0  0  0  0  0  0  0  0  0  0  0
    4.6924   -1.5159    0.1022 H   0  0  0  0  0  0  0  0  0  0  0  0
  1  2  2  0  0  0  0
  2  3  1  0  0  0  0
  2 14  1  0  0  0  0
  3  4  1  0  0  0  0
  3 29  1  0  0  0  0
  4  5  2  0  0  0  0
  4 11  1  0  0  0  0
  5  6  1  0  0  0  0
  5 30  1  0  0  0  0
  6  7  2  0  0  0  0
  6 31  1  0  0  0  0
  7  8  1  0  0  0  0
  7 10  1  0  0  0  0
  8  9  1  0  0  0  0
  8 32  1  0  0  0  0
  8 33  1  0  0  0  0
  9 34  1  0  0  0  0
 10 11  2  0  0  0  0
 10 35  1  0  0  0  0
 11 12  1  0  0  0  0
 12 13  1  0  0  0  0
 12 36  1  0  0  0  0
 12 37  1  0  0  0  0
 13 38  1  0  0  0  0
 14 15  2  0  0  0  0
 14 28  1  0  0  0  0
 15 16  1  0  0  0  0
 15 39  1  0  0  0  0
 16 17  2  0  0  0  0
 16 40  1  0  0  0  0
 17 18  1  0  0  0  0
 17 27  1  0  0  0  0
 18 19  1  0  0  0  0
 18 26  1  0  0  0  0
 19 20  2  0  0  0  0
 19 41  1  0  0  0  0
 20 21  1  0  0  0  0
 20 42  1  0  0  0  0
 21 22  2  0  0  0  0
 21 26  1  0  0  0  0
 22 23  1  0  0  0  0
 22 43  1  0  0  0  0
 23 24  2  0  0  0  0
 23 44  1  0  0  0  0
 24 25  1  0  0  0  0
 24 45  1  0  0  0  0
 25 26  2  0  0  0  0
 25 46  1  0  0  0  0
 27 28  2  0  0  0  0
 27 47  1  0  0  0  0
 28 48  1  0  0  0  0
M  END
$$$$
