
 OpenBabel01122422423D

 48 51  0  0  0  0  0  0  0  0999 V2000
    1.2218    0.7452    0.5213 C   0  0  0  0  0  0  0  0  0  0  0  0
    2.6503    0.7168    0.5210 O   0  0  0  0  0  0  0  0  0  0  0  0
    3.2020   -0.1858    1.3740 C   0  0  0  0  0  0  0  0  0  0  0  0
    2.5815   -0.9445    2.1023 O   0  0  0  0  0  0  0  0  0  0  0  0
    4.6943   -0.1141    1.3355 C   0  0  0  0  0  0  0  0  0  0  0  0
    5.3685    0.7708    0.4840 C   0  0  0  0  0  0  0  0  0  0  0  0
    6.7770    0.8791    0.4863 C   0  0  0  0  0  0  0  0  0  0  0  0
    7.4405    1.8690   -0.4294 C   0  0  0  0  0  0  0  0  0  0  0  0
    7.5084    0.0655    1.3866 C   0  0  0  0  0  0  0  0  0  0  0  0
    8.8981   -0.0611    1.7036 C   0  0  0  0  0  0  0  0  0  0  0  0
    9.0349   -0.9479    2.7590 C   0  0  0  0  0  0  0  0  0  0  0  0
   10.1709   -1.3555    3.5752 C   0  0  0  0  0  0  0  0  0  0  0  0
   10.0469   -2.2494    4.4095 O   0  0  0  0  0  0  0  0  0  0  0  0
   11.3395   -0.6299    3.3871 N   0  0  0  0  0  0  0  0  0  0  0  0
   12.5435   -0.7855    4.1178 C   0  0  0  0  0  0  0  0  0  0  0  0
   12.8637   -1.8468    4.9455 C   0  0  0  0  0  0  0  0  0  0  0  0
   14.0110   -1.9391    5.6644 N   0  0  0  0  0  0  0  0  0  0  0  0
   14.8897   -0.9219    5.5590 C   0  0  0  0  0  0  0  0  0  0  0  0
   16.0972   -0.9514    6.4175 C   0  0  0  0  0  0  0  0  0  0  0  0
   16.3681   -2.0460    7.2690 C   0  0  0  0  0  0  0  0  0  0  0  0
   17.4826   -2.0479    8.1107 C   0  0  0  0  0  0  0  0  0  0  0  0
   17.7574   -3.1044    8.9278 O   0  0  0  0  0  0  0  0  0  0  0  0
   18.3549   -0.9673    8.1410 C   0  0  0  0  0  0  0  0  0  0  0  0
   18.1244    0.1154    7.3047 C   0  0  0  0  0  0  0  0  0  0  0  0
   17.0157    0.1183    6.4476 C   0  0  0  0  0  0  0  0  0  0  0  0
   14.6973    0.1445    4.7553 N   0  0  0  0  0  0  0  0  0  0  0  0
   13.5356    0.1758    4.0552 C   0  0  0  0  0  0  0  0  0  0  0  0
    7.7708   -1.4651    2.9794 N   0  0  0  0  0  0  0  0  0  0  0  0
    6.8237   -0.8210    2.2135 C   0  0  0  0  0  0  0  0  0  0  0  0
    5.4245   -0.9431    2.2041 C   0  0  0  0  0  0  0  0  0  0  0  0
    0.8935    1.3867   -0.3022 H   0  0  0  0  0  0  0  0  0  0  0  0
    0.8527    1.1729    1.4589 H   0  0  0  0  0  0  0  0  0  0  0  0
    0.8044   -0.2550    0.3615 H   0  0  0  0  0  0  0  0  0  0  0  0
    4.7980    1.4096   -0.1887 H   0  0  0  0  0  0  0  0  0  0  0  0
    6.7089    2.4711   -0.9768 H   0  0  0  0  0  0  0  0  0  0  0  0
    8.0657    1.3439   -1.1582 H   0  0  0  0  0  0  0  0  0  0  0  0
    8.0663    2.5531    0.1542 H   0  0  0  0  0  0  0  0  0  0  0  0
    9.6919    0.4989    1.2283 H   0  0  0  0  0  0  0  0  0  0  0  0
   11.2855    0.1617    2.7607 H   0  0  0  0  0  0  0  0  0  0  0  0
   12.2074   -2.7022    5.0705 H   0  0  0  0  0  0  0  0  0  0  0  0
   15.6869   -2.8950    7.2765 H   0  0  0  0  0  0  0  0  0  0  0  0
   17.1318   -3.8202    8.7275 H   0  0  0  0  0  0  0  0  0  0  0  0
   19.2054   -0.9750    8.8174 H   0  0  0  0  0  0  0  0  0  0  0  0
   18.8049    0.9626    7.3170 H   0  0  0  0  0  0  0  0  0  0  0  0
   16.8623    0.9828    5.8018 H   0  0  0  0  0  0  0  0  0  0  0  0
   13.4226    1.0657    3.4379 H   0  0  0  0  0  0  0  0  0  0  0  0
    7.5721   -2.1706    3.6783 H   0  0  0  0  0  0  0  0  0  0  0  0
    4.9157   -1.6374    2.8685 H   0  0  0  0  0  0  0  0  0  0  0  0
  1  2  1  0  0  0  0
  1 31  1  0  0  0  0
  1 32  1  0  0  0  0
  1 33  1  0  0  0  0
  2  3  1  0  0  0  0
  3  4  2  0  0  0  0
  3  5  1  0  0  0  0
  5  6  2  0  0  0  0
  5 30  1  0  0  0  0
  6  7  1  0  0  0  0
  6 34  1  0  0  0  0
  7  8  1  0  0  0  0
  7  9  2  0  0  0  0
  8 35  1  0  0  0  0
  8 36  1  0  0  0  0
  8 37  1  0  0  0  0
  9 10  1  0  0  0  0
  9 29  1  0  0  0  0
 10 11  2  0  0  0  0
 10 38  1  0  0  0  0
 11 12  1  0  0  0  0
 11 28  1  0  0  0  0
 12 13  2  0  0  0  0
 12 14  1  0  0  0  0
 14 15  1  0  0  0  0
 14 39  1  0  0  0  0
 15 16  2  0  0  0  0
 15 27  1  0  0  0  0
 16 17  1  0  0  0  0
 16 40  1  0  0  0  0
 17 18  2  0  0  0  0
 18 19  1  0  0  0  0
 18 26  1  0  0  0  0
 19 20  2  0  0  0  0
 19 25  1  0  0  0  0
 20 21  1  0  0  0  0
 20 41  1  0  0  0  0
 21 22  1  0  0  0  0
 21 23  2  0  0  0  0
 22 42  1  0  0  0  0
 23 24  1  0  0  0  0
 23 43  1  0  0  0  0
 24 25  2  0  0  0  0
 24 44  1  0  0  0  0
 25 45  1  0  0  0  0
 26 27  2  0  0  0  0
 27 46  1  0  0  0  0
 28 29  1  0  0  0  0
 28 47  1  0  0  0  0
 29 30  2  0  0  0  0
 30 48  1  0  0  0  0
M  END
$$$$
