
 OpenBabel01122422423D

 40 43  0  0  0  0  0  0  0  0999 V2000
    1.1338   -0.2834   -0.0614 O   0  0  0  0  0  0  0  0  0  0  0  0
    2.3185    0.0081   -0.1607 C   0  0  0  0  0  0  0  0  0  0  0  0
    2.9245    1.1877    0.2303 N   0  0  0  0  0  0  0  0  0  0  0  0
    2.2904    2.2983    0.8303 C   0  0  0  0  0  0  0  0  0  0  0  0
    0.9844    2.2842    1.3173 C   0  0  0  0  0  0  0  0  0  0  0  0
    0.4152    3.4353    1.8893 C   0  0  0  0  0  0  0  0  0  0  0  0
    1.1306    4.6417    1.9959 C   0  0  0  0  0  0  0  0  0  0  0  0
    0.5417    5.7963    2.5582 N   0  0  0  0  0  0  0  0  0  0  0  0
   -0.6849    5.9932    3.1206 C   0  0  0  0  0  0  0  0  0  0  0  0
   -0.7775    7.1756    3.7388 C   0  0  0  0  0  0  0  0  0  0  0  0
    0.5430    7.8081    3.5344 C   0  0  0  0  0  0  0  0  0  0  0  0
    0.8320    8.9433    3.8420 O   0  0  0  0  0  0  0  0  0  0  0  0
    1.3384    6.8716    2.8993 N   0  0  0  0  0  0  0  0  0  0  0  0
    2.4435    4.6235    1.4934 C   0  0  0  0  0  0  0  0  0  0  0  0
    3.1950    5.7379    1.5216 F   0  0  0  0  0  0  0  0  0  0  0  0
    3.0209    3.4812    0.9304 C   0  0  0  0  0  0  0  0  0  0  0  0
    3.2126   -0.9492   -0.8603 C   0  0  0  0  0  0  0  0  0  0  0  0
    4.4842   -1.2853   -0.3629 C   0  0  0  0  0  0  0  0  0  0  0  0
    5.2705   -2.2105   -1.0593 C   0  0  0  0  0  0  0  0  0  0  0  0
    4.8206   -2.6978   -2.2942 C   0  0  0  0  0  0  0  0  0  0  0  0
    5.6465   -3.5768   -3.0388 N   0  0  0  0  0  0  0  0  0  0  0  0
    6.4673   -4.4261   -2.3299 C   0  0  0  0  0  0  0  0  0  0  0  0
    6.7852   -5.5416   -2.7214 O   0  0  0  0  0  0  0  0  0  0  0  0
    7.0522   -3.8516   -1.0924 C   0  0  0  0  0  0  0  0  0  0  0  0
    6.5153   -2.7638   -0.5169 C   0  0  0  0  0  0  0  0  0  0  0  0
    3.5497   -2.3798   -2.7642 C   0  0  0  0  0  0  0  0  0  0  0  0
    3.0893   -2.9200   -3.9011 F   0  0  0  0  0  0  0  0  0  0  0  0
    2.7258   -1.5407   -2.0324 C   0  0  0  0  0  0  0  0  0  0  0  0
    3.8868    1.3278   -0.0520 H   0  0  0  0  0  0  0  0  0  0  0  0
    0.3716    1.3872    1.2787 H   0  0  0  0  0  0  0  0  0  0  0  0
   -0.6063    3.3589    2.2516 H   0  0  0  0  0  0  0  0  0  0  0  0
   -1.4711    5.2528    3.0503 H   0  0  0  0  0  0  0  0  0  0  0  0
   -1.6016    7.6306    4.2604 H   0  0  0  0  0  0  0  0  0  0  0  0
    2.1859    7.0986    2.3952 H   0  0  0  0  0  0  0  0  0  0  0  0
    4.0375    3.5556    0.5588 H   0  0  0  0  0  0  0  0  0  0  0  0
    4.8249   -0.8827    0.5879 H   0  0  0  0  0  0  0  0  0  0  0  0
    6.2645   -3.0036   -3.6121 H   0  0  0  0  0  0  0  0  0  0  0  0
    7.9079   -4.3788   -0.6893 H   0  0  0  0  0  0  0  0  0  0  0  0
    6.9370   -2.3507    0.3913 H   0  0  0  0  0  0  0  0  0  0  0  0
    1.7135   -1.3505   -2.3788 H   0  0  0  0  0  0  0  0  0  0  0  0
  1  2  2  0  0  0  0
  2  3  1  0  0  0  0
  2 17  1  0  0  0  0
  3  4  1  0  0  0  0
  3 29  1  0  0  0  0
  4  5  2  0  0  0  0
  4 16  1  0  0  0  0
  5  6  1  0  0  0  0
  5 30  1  0  0  0  0
  6  7  2  0  0  0  0
  6 31  1  0  0  0  0
  7  8  1  0  0  0  0
  7 14  1  0  0  0  0
  8  9  1  0  0  0  0
  8 13  1  0  0  0  0
  9 10  2  0  0  0  0
  9 32  1  0  0  0  0
 10 11  1  0  0  0  0
 10 33  1  0  0  0  0
 11 12  2  0  0  0  0
 11 13  1  0  0  0  0
 13 34  1  0  0  0  0
 14 15  1  0  0  0  0
 14 16  2  0  0  0  0
 16 35  1  0  0  0  0
 17 18  2  0  0  0  0
 17 28  1  0  0  0  0
 18 19  1  0  0  0  0
 18 36  1  0  0  0  0
 19 20  2  0  0  0  0
 19 25  1  0  0  0  0
 20 21  1  0  0  0  0
 20 26  1  0  0  0  0
 21 22  1  0  0  0  0
 21 37  1  0  0  0  0
 22 23  2  0  0  0  0
 22 24  1  0  0  0  0
 24 25  2  0  0  0  0
 24 38  1  0  0  0  0
 25 39  1  0  0  0  0
 26 27  1  0  0  0  0
 26 28  2  0  0  0  0
 28 40  1  0  0  0  0
M  END
$$$$
