
 OpenBabel01122422423D

 54 57  0  0  0  0  0  0  0  0999 V2000
    2.6269    1.3405   -3.4554 N   0  0  0  0  0  0  0  0  0  0  0  0
    2.6375    0.4354   -2.4272 C   0  0  0  0  0  0  0  0  0  0  0  0
    2.1640   -0.6850   -2.5627 O   0  0  0  0  0  0  0  0  0  0  0  0
    3.2883    0.9326   -1.1267 C   0  0  0  0  0  0  0  0  0  0  0  0
    4.7165    0.6290   -1.0018 N   0  0  0  0  0  0  0  0  0  0  0  0
    5.1140   -0.2263    0.1275 C   0  0  0  0  0  0  0  0  0  0  0  0
    5.5174    0.5129    1.3921 C   0  0  0  0  0  0  0  0  0  0  0  0
    5.3769    1.8964    1.5517 C   0  0  0  0  0  0  0  0  0  0  0  0
    5.8665    2.5485    2.6883 C   0  0  0  0  0  0  0  0  0  0  0  0
    6.4847    1.8506    3.7382 C   0  0  0  0  0  0  0  0  0  0  0  0
    7.0295    2.5567    4.9243 C   0  0  0  0  0  0  0  0  0  0  0  0
    6.4569    3.7533    5.3968 C   0  0  0  0  0  0  0  0  0  0  0  0
    6.9571    4.4138    6.5237 C   0  0  0  0  0  0  0  0  0  0  0  0
    8.0444    3.8879    7.2136 C   0  0  0  0  0  0  0  0  0  0  0  0
    8.6420    2.7164    6.7626 C   0  0  0  0  0  0  0  0  0  0  0  0
    8.1458    2.0653    5.6278 C   0  0  0  0  0  0  0  0  0  0  0  0
    6.5568    0.4531    3.6016 C   0  0  0  0  0  0  0  0  0  0  0  0
    6.0903   -0.2034    2.4547 C   0  0  0  0  0  0  0  0  0  0  0  0
    5.6035    1.4611   -1.7191 C   0  0  0  0  0  0  0  0  0  0  0  0
    5.1452    2.3047   -2.4978 O   0  0  0  0  0  0  0  0  0  0  0  0
    7.0620    1.3536   -1.4955 C   0  0  0  0  0  0  0  0  0  0  0  0
    7.6801    0.2020   -1.1767 N   0  0  0  0  0  0  0  0  0  0  0  0
    8.9818    0.5176   -0.9833 N   0  0  0  0  0  0  0  0  0  0  0  0
    9.9017   -0.4700   -0.5341 C   0  0  0  0  0  0  0  0  0  0  0  0
    9.4489   -1.7768   -0.2762 C   0  0  0  0  0  0  0  0  0  0  0  0
   10.3410   -2.7640    0.1477 C   0  0  0  0  0  0  0  0  0  0  0  0
   11.6865   -2.4488    0.3261 C   0  0  0  0  0  0  0  0  0  0  0  0
   12.1262   -1.1542    0.0826 C   0  0  0  0  0  0  0  0  0  0  0  0
   13.4200   -0.8551    0.2593 F   0  0  0  0  0  0  0  0  0  0  0  0
   11.2521   -0.1616   -0.3445 C   0  0  0  0  0  0  0  0  0  0  0  0
    9.2343    1.8365   -1.2828 C   0  0  0  0  0  0  0  0  0  0  0  0
    8.0260    2.3842   -1.6160 C   0  0  0  0  0  0  0  0  0  0  0  0
    7.8526    3.6718   -1.9497 O   0  0  0  0  0  0  0  0  0  0  0  0
    2.2584    1.0148   -4.3392 H   0  0  0  0  0  0  0  0  0  0  0  0
    3.3894    2.0152   -3.5021 H   0  0  0  0  0  0  0  0  0  0  0  0
    2.7340    0.4788   -0.3004 H   0  0  0  0  0  0  0  0  0  0  0  0
    3.1430    2.0147   -1.0477 H   0  0  0  0  0  0  0  0  0  0  0  0
    5.9348   -0.8748   -0.1842 H   0  0  0  0  0  0  0  0  0  0  0  0
    4.2869   -0.9101    0.3559 H   0  0  0  0  0  0  0  0  0  0  0  0
    4.9153    2.5070    0.7819 H   0  0  0  0  0  0  0  0  0  0  0  0
    5.7757    3.6322    2.7213 H   0  0  0  0  0  0  0  0  0  0  0  0
    5.5931    4.1885    4.8992 H   0  0  0  0  0  0  0  0  0  0  0  0
    6.4890    5.3337    6.8633 H   0  0  0  0  0  0  0  0  0  0  0  0
    8.4241    4.3911    8.0975 H   0  0  0  0  0  0  0  0  0  0  0  0
    9.4971    2.3041    7.2922 H   0  0  0  0  0  0  0  0  0  0  0  0
    8.6572    1.1650    5.2946 H   0  0  0  0  0  0  0  0  0  0  0  0
    6.9883   -0.1526    4.3983 H   0  0  0  0  0  0  0  0  0  0  0  0
    6.1959   -1.2855    2.3933 H   0  0  0  0  0  0  0  0  0  0  0  0
    8.4011   -2.0445   -0.4067 H   0  0  0  0  0  0  0  0  0  0  0  0
    9.9892   -3.7741    0.3377 H   0  0  0  0  0  0  0  0  0  0  0  0
   12.3961   -3.2032    0.6508 H   0  0  0  0  0  0  0  0  0  0  0  0
   11.6641    0.8261   -0.5150 H   0  0  0  0  0  0  0  0  0  0  0  0
   10.2203    2.2679   -1.2154 H   0  0  0  0  0  0  0  0  0  0  0  0
    8.7089    4.1236   -2.0412 H   0  0  0  0  0  0  0  0  0  0  0  0
  1  2  1  0  0  0  0
  1 34  1  0  0  0  0
  1 35  1  0  0  0  0
  2  3  2  0  0  0  0
  2  4  1  0  0  0  0
  4  5  1  0  0  0  0
  4 36  1  0  0  0  0
  4 37  1  0  0  0  0
  5  6  1  0  0  0  0
  5 19  1  0  0  0  0
  6  7  1  0  0  0  0
  6 38  1  0  0  0  0
  6 39  1  0  0  0  0
  7  8  2  0  0  0  0
  7 18  1  0  0  0  0
  8  9  1  0  0  0  0
  8 40  1  0  0  0  0
  9 10  2  0  0  0  0
  9 41  1  0  0  0  0
 10 11  1  0  0  0  0
 10 17  1  0  0  0  0
 11 12  2  0  0  0  0
 11 16  1  0  0  0  0
 12 13  1  0  0  0  0
 12 42  1  0  0  0  0
 13 14  2  0  0  0  0
 13 43  1  0  0  0  0
 14 15  1  0  0  0  0
 14 44  1  0  0  0  0
 15 16  2  0  0  0  0
 15 45  1  0  0  0  0
 16 46  1  0  0  0  0
 17 18  2  0  0  0  0
 17 47  1  0  0  0  0
 18 48  1  0  0  0  0
 19 20  2  0  0  0  0
 19 21  1  0  0  0  0
 21 22  2  0  0  0  0
 21 32  1  0  0  0  0
 22 23  1  0  0  0  0
 23 24  1  0  0  0  0
 23 31  1  0  0  0  0
 24 25  2  0  0  0  0
 24 30  1  0  0  0  0
 25 26  1  0  0  0  0
 25 49  1  0  0  0  0
 26 27  2  0  0  0  0
 26 50  1  0  0  0  0
 27 28  1  0  0  0  0
 27 51  1  0  0  0  0
 28 29  1  0  0  0  0
 28 30  2  0  0  0  0
 30 52  1  0  0  0  0
 31 32  2  0  0  0  0
 31 53  1  0  0  0  0
 32 33  1  0  0  0  0
 33 54  1  0  0  0  0
M  END
$$$$
