
 OpenBabel01122422423D

 45 48  0  0  0  0  0  0  0  0999 V2000
    1.0345   -0.1974   -0.2288 O   0  0  0  0  0  0  0  0  0  0  0  0
    2.2459   -0.2296   -0.0533 C   0  0  0  0  0  0  0  0  0  0  0  0
    2.9406    0.4440    0.9385 N   0  0  0  0  0  0  0  0  0  0  0  0
    2.3515    1.2309    1.9590 C   0  0  0  0  0  0  0  0  0  0  0  0
    0.9910    1.2248    2.2667 C   0  0  0  0  0  0  0  0  0  0  0  0
    0.4945    2.0492    3.2768 C   0  0  0  0  0  0  0  0  0  0  0  0
    1.3828    2.8597    3.9613 C   0  0  0  0  0  0  0  0  0  0  0  0
    2.7099    2.8862    3.7134 N   0  0  0  0  0  0  0  0  0  0  0  0
    3.1569    2.0724    2.7238 C   0  0  0  0  0  0  0  0  0  0  0  0
    3.0574   -1.0112   -1.0273 C   0  0  0  0  0  0  0  0  0  0  0  0
    2.6229   -1.0209   -2.3536 C   0  0  0  0  0  0  0  0  0  0  0  0
    3.2301   -1.8539   -3.2969 C   0  0  0  0  0  0  0  0  0  0  0  0
    4.2739   -2.7084   -2.9371 C   0  0  0  0  0  0  0  0  0  0  0  0
    4.8650   -3.6324   -3.8408 N   0  0  0  0  0  0  0  0  0  0  0  0
    4.4289   -3.8911   -5.1352 C   0  0  0  0  0  0  0  0  0  0  0  0
    3.4344   -3.4213   -5.6773 O   0  0  0  0  0  0  0  0  0  0  0  0
    5.2859   -4.7739   -5.9748 C   0  0  0  0  0  0  0  0  0  0  0  0
    5.9907   -5.8805   -5.4761 C   0  0  0  0  0  0  0  0  0  0  0  0
    6.8638   -6.5843   -6.3218 C   0  0  0  0  0  0  0  0  0  0  0  0
    7.0172   -6.1754   -7.6552 C   0  0  0  0  0  0  0  0  0  0  0  0
    8.0051   -6.7670   -8.4563 N   0  0  0  0  0  0  0  0  0  0  0  0
    8.8820   -7.7080   -7.9936 C   0  0  0  0  0  0  0  0  0  0  0  0
    9.8344   -8.1087   -8.6520 O   0  0  0  0  0  0  0  0  0  0  0  0
    8.6140   -8.2423   -6.6341 C   0  0  0  0  0  0  0  0  0  0  0  0
    7.6553   -7.7247   -5.8519 C   0  0  0  0  0  0  0  0  0  0  0  0
    6.2425   -5.1395   -8.1635 C   0  0  0  0  0  0  0  0  0  0  0  0
    6.3621   -4.7774   -9.4489 F   0  0  0  0  0  0  0  0  0  0  0  0
    5.3781   -4.4404   -7.3358 C   0  0  0  0  0  0  0  0  0  0  0  0
    4.7506   -2.6513   -1.6165 C   0  0  0  0  0  0  0  0  0  0  0  0
    4.1446   -1.8101   -0.6605 C   0  0  0  0  0  0  0  0  0  0  0  0
    3.9503    0.4847    0.8545 H   0  0  0  0  0  0  0  0  0  0  0  0
    0.2878    0.5816    1.7471 H   0  0  0  0  0  0  0  0  0  0  0  0
   -0.5630    2.0539    3.5181 H   0  0  0  0  0  0  0  0  0  0  0  0
    1.0394    3.5251    4.7480 H   0  0  0  0  0  0  0  0  0  0  0  0
    4.2265    2.1418    2.5530 H   0  0  0  0  0  0  0  0  0  0  0  0
    1.7818   -0.4010   -2.6604 H   0  0  0  0  0  0  0  0  0  0  0  0
    2.8379   -1.8135   -4.3076 H   0  0  0  0  0  0  0  0  0  0  0  0
    5.6797   -4.1261   -3.5018 H   0  0  0  0  0  0  0  0  0  0  0  0
    5.8666   -6.1949   -4.4435 H   0  0  0  0  0  0  0  0  0  0  0  0
    8.1655   -6.4103   -9.3916 H   0  0  0  0  0  0  0  0  0  0  0  0
    9.2365   -9.0726   -6.3235 H   0  0  0  0  0  0  0  0  0  0  0  0
    7.4541   -8.1433   -4.8724 H   0  0  0  0  0  0  0  0  0  0  0  0
    4.8049   -3.6137   -7.7487 H   0  0  0  0  0  0  0  0  0  0  0  0
    5.5700   -3.2911   -1.2967 H   0  0  0  0  0  0  0  0  0  0  0  0
    4.4903   -1.8417    0.3695 H   0  0  0  0  0  0  0  0  0  0  0  0
  1  2  2  0  0  0  0
  2  3  1  0  0  0  0
  2 10  1  0  0  0  0
  3  4  1  0  0  0  0
  3 31  1  0  0  0  0
  4  5  2  0  0  0  0
  4  9  1  0  0  0  0
  5  6  1  0  0  0  0
  5 32  1  0  0  0  0
  6  7  2  0  0  0  0
  6 33  1  0  0  0  0
  7  8  1  0  0  0  0
  7 34  1  0  0  0  0
  8  9  2  0  0  0  0
  9 35  1  0  0  0  0
 10 11  2  0  0  0  0
 10 30  1  0  0  0  0
 11 12  1  0  0  0  0
 11 36  1  0  0  0  0
 12 13  2  0  0  0  0
 12 37  1  0  0  0  0
 13 14  1  0  0  0  0
 13 29  1  0  0  0  0
 14 15  1  0  0  0  0
 14 38  1  0  0  0  0
 15 16  2  0  0  0  0
 15 17  1  0  0  0  0
 17 18  2  0  0  0  0
 17 28  1  0  0  0  0
 18 19  1  0  0  0  0
 18 39  1  0  0  0  0
 19 20  2  0  0  0  0
 19 25  1  0  0  0  0
 20 21  1  0  0  0  0
 20 26  1  0  0  0  0
 21 22  1  0  0  0  0
 21 40  1  0  0  0  0
 22 23  2  0  0  0  0
 22 24  1  0  0  0  0
 24 25  2  0  0  0  0
 24 41  1  0  0  0  0
 25 42  1  0  0  0  0
 26 27  1  0  0  0  0
 26 28  2  0  0  0  0
 28 43  1  0  0  0  0
 29 30  2  0  0  0  0
 29 44  1  0  0  0  0
 30 45  1  0  0  0  0
M  END
$$$$
