
 OpenBabel01122422423D

 45 48  0  0  0  0  0  0  0  0999 V2000
    0.9766   -0.2551    0.5215 O   0  0  0  0  0  0  0  0  0  0  0  0
    2.1963   -0.3195    0.4305 C   0  0  0  0  0  0  0  0  0  0  0  0
    2.8924   -1.0237   -0.5413 N   0  0  0  0  0  0  0  0  0  0  0  0
    2.1934   -1.6981   -1.5699 C   0  0  0  0  0  0  0  0  0  0  0  0
    1.2345   -1.0159   -2.3242 C   0  0  0  0  0  0  0  0  0  0  0  0
    0.5890   -1.5301   -3.3978 N   0  0  0  0  0  0  0  0  0  0  0  0
    0.8884   -2.7985   -3.7304 C   0  0  0  0  0  0  0  0  0  0  0  0
    1.7860   -3.5807   -3.0246 C   0  0  0  0  0  0  0  0  0  0  0  0
    2.4375   -3.0325   -1.9157 C   0  0  0  0  0  0  0  0  0  0  0  0
    3.3001   -3.9052   -1.2903 O   0  0  0  0  0  0  0  0  0  0  0  0
    3.4340   -3.9401    0.0779 C   0  0  0  0  0  0  0  0  0  0  0  0
    2.4702   -3.5470    1.0086 C   0  0  0  0  0  0  0  0  0  0  0  0
    2.7980   -3.4875    2.3662 C   0  0  0  0  0  0  0  0  0  0  0  0
    4.0541   -3.9059    2.8032 C   0  0  0  0  0  0  0  0  0  0  0  0
    4.9733   -4.4137    1.8881 C   0  0  0  0  0  0  0  0  0  0  0  0
    4.6636   -4.4267    0.5284 C   0  0  0  0  0  0  0  0  0  0  0  0
    3.0457    0.2804    1.5280 C   0  0  0  0  0  0  0  0  0  0  0  0
    4.2330   -0.2311    1.7308 N   0  0  0  0  0  0  0  0  0  0  0  0
    4.9808    0.2898    2.7696 N   0  0  0  0  0  0  0  0  0  0  0  0
    6.3826   -0.0062    2.7115 C   0  0  0  0  0  0  0  0  0  0  0  0
    6.8432   -1.1309    2.0010 C   0  0  0  0  0  0  0  0  0  0  0  0
    8.2076   -1.4076    1.8652 C   0  0  0  0  0  0  0  0  0  0  0  0
    9.1515   -0.5588    2.4350 C   0  0  0  0  0  0  0  0  0  0  0  0
    8.7274    0.5544    3.1531 C   0  0  0  0  0  0  0  0  0  0  0  0
    7.3648    0.8198    3.2902 C   0  0  0  0  0  0  0  0  0  0  0  0
    7.0296    1.9381    3.9545 F   0  0  0  0  0  0  0  0  0  0  0  0
    4.4194    1.1186    3.7242 C   0  0  0  0  0  0  0  0  0  0  0  0
    3.2249    1.6997    3.6246 C   0  0  0  0  0  0  0  0  0  0  0  0
    2.5261    1.4340    2.3675 C   0  0  0  0  0  0  0  0  0  0  0  0
    1.5991    2.1285    1.9964 O   0  0  0  0  0  0  0  0  0  0  0  0
    3.7927   -1.3877   -0.2416 H   0  0  0  0  0  0  0  0  0  0  0  0
    0.9809    0.0186   -2.1073 H   0  0  0  0  0  0  0  0  0  0  0  0
    0.3709   -3.1837   -4.6048 H   0  0  0  0  0  0  0  0  0  0  0  0
    1.9712   -4.6048   -3.3299 H   0  0  0  0  0  0  0  0  0  0  0  0
    1.4770   -3.2320    0.6974 H   0  0  0  0  0  0  0  0  0  0  0  0
    2.0768   -3.1001    3.0826 H   0  0  0  0  0  0  0  0  0  0  0  0
    4.3146   -3.8423    3.8568 H   0  0  0  0  0  0  0  0  0  0  0  0
    5.9406   -4.7733    2.2285 H   0  0  0  0  0  0  0  0  0  0  0  0
    5.3902   -4.8031   -0.1873 H   0  0  0  0  0  0  0  0  0  0  0  0
    6.1294   -1.8075    1.5398 H   0  0  0  0  0  0  0  0  0  0  0  0
    8.5284   -2.2809    1.3025 H   0  0  0  0  0  0  0  0  0  0  0  0
   10.2124   -0.7569    2.3108 H   0  0  0  0  0  0  0  0  0  0  0  0
    9.4479    1.2365    3.5937 H   0  0  0  0  0  0  0  0  0  0  0  0
    5.0251    1.2906    4.6095 H   0  0  0  0  0  0  0  0  0  0  0  0
    2.7984    2.3791    4.3461 H   0  0  0  0  0  0  0  0  0  0  0  0
  1  2  2  0  0  0  0
  2  3  1  0  0  0  0
  2 17  1  0  0  0  0
  3  4  1  0  0  0  0
  3 31  1  0  0  0  0
  4  5  2  0  0  0  0
  4  9  1  0  0  0  0
  5  6  1  0  0  0  0
  5 32  1  0  0  0  0
  6  7  2  0  0  0  0
  7  8  1  0  0  0  0
  7 33  1  0  0  0  0
  8  9  2  0  0  0  0
  8 34  1  0  0  0  0
  9 10  1  0  0  0  0
 10 11  1  0  0  0  0
 11 12  2  0  0  0  0
 11 16  1  0  0  0  0
 12 13  1  0  0  0  0
 12 35  1  0  0  0  0
 13 14  2  0  0  0  0
 13 36  1  0  0  0  0
 14 15  1  0  0  0  0
 14 37  1  0  0  0  0
 15 16  2  0  0  0  0
 15 38  1  0  0  0  0
 16 39  1  0  0  0  0
 17 18  2  0  0  0  0
 17 29  1  0  0  0  0
 18 19  1  0  0  0  0
 19 20  1  0  0  0  0
 19 27  1  0  0  0  0
 20 21  2  0  0  0  0
 20 25  1  0  0  0  0
 21 22  1  0  0  0  0
 21 40  1  0  0  0  0
 22 23  2  0  0  0  0
 22 41  1  0  0  0  0
 23 24  1  0  0  0  0
 23 42  1  0  0  0  0
 24 25  2  0  0  0  0
 24 43  1  0  0  0  0
 25 26  1  0  0  0  0
 27 28  2  0  0  0  0
 27 44  1  0  0  0  0
 28 29  1  0  0  0  0
 28 45  1  0  0  0  0
 29 30  2  0  0  0  0
M  END
$$$$
