
 OpenBabel01122422423D

 49 52  0  0  0  0  0  0  0  0999 V2000
    0.9828    0.4955   -0.1551 C   0  0  0  0  0  0  0  0  0  0  0  0
    2.4306    0.5209   -0.3173 N   0  0  0  0  0  0  0  0  0  0  0  0
    2.9878   -0.3372   -1.3722 C   0  0  0  0  0  0  0  0  0  0  0  0
    3.0144    0.3366   -2.7212 C   0  0  0  0  0  0  0  0  0  0  0  0
    2.5754    1.5742   -3.0389 C   0  0  0  0  0  0  0  0  0  0  0  0
    2.7073    2.1024   -4.3790 C   0  0  0  0  0  0  0  0  0  0  0  0
    3.2780    1.3679   -5.3321 C   0  0  0  0  0  0  0  0  0  0  0  0
    3.7378    0.1046   -5.0450 N   0  0  0  0  0  0  0  0  0  0  0  0
    3.6477   -0.4756   -3.8037 C   0  0  0  0  0  0  0  0  0  0  0  0
    4.0734   -1.6030   -3.5911 O   0  0  0  0  0  0  0  0  0  0  0  0
    3.1481    1.1239    0.7294 C   0  0  0  0  0  0  0  0  0  0  0  0
    2.5665    1.5737    1.7193 O   0  0  0  0  0  0  0  0  0  0  0  0
    4.6301    1.2379    0.7116 C   0  0  0  0  0  0  0  0  0  0  0  0
    5.3725    1.4823   -0.4475 C   0  0  0  0  0  0  0  0  0  0  0  0
    6.7682    1.5153   -0.4064 C   0  0  0  0  0  0  0  0  0  0  0  0
    7.4360    1.3285    0.8095 C   0  0  0  0  0  0  0  0  0  0  0  0
    8.8516    1.1711    0.7981 N   0  0  0  0  0  0  0  0  0  0  0  0
    9.5745    1.8155   -0.1582 N   0  0  0  0  0  0  0  0  0  0  0  0
   10.8415    1.6144    0.1856 C   0  0  0  0  0  0  0  0  0  0  0  0
   10.9627    0.7429    1.2757 C   0  0  0  0  0  0  0  0  0  0  0  0
    9.6683    0.3753    1.6160 C   0  0  0  0  0  0  0  0  0  0  0  0
    9.2375   -0.6719    2.5644 C   0  0  0  0  0  0  0  0  0  0  0  0
   10.0184   -0.9669    3.6946 C   0  0  0  0  0  0  0  0  0  0  0  0
    9.5966   -1.9153    4.6336 C   0  0  0  0  0  0  0  0  0  0  0  0
    8.3778   -2.5589    4.4596 C   0  0  0  0  0  0  0  0  0  0  0  0
    7.9488   -3.4276    5.3836 F   0  0  0  0  0  0  0  0  0  0  0  0
    7.6069   -2.3235    3.3335 C   0  0  0  0  0  0  0  0  0  0  0  0
    8.0642   -1.4216    2.3689 C   0  0  0  0  0  0  0  0  0  0  0  0
    6.6989    1.2421    1.9954 C   0  0  0  0  0  0  0  0  0  0  0  0
    5.3038    1.1736    1.9405 C   0  0  0  0  0  0  0  0  0  0  0  0
    0.4980   -0.0052   -0.9986 H   0  0  0  0  0  0  0  0  0  0  0  0
    0.6155    1.5228   -0.0891 H   0  0  0  0  0  0  0  0  0  0  0  0
    0.7331   -0.0307    0.7716 H   0  0  0  0  0  0  0  0  0  0  0  0
    2.3750   -1.2434   -1.4236 H   0  0  0  0  0  0  0  0  0  0  0  0
    3.9907   -0.6637   -1.0873 H   0  0  0  0  0  0  0  0  0  0  0  0
    2.1277    2.2279   -2.2986 H   0  0  0  0  0  0  0  0  0  0  0  0
    2.3414    3.1056   -4.5832 H   0  0  0  0  0  0  0  0  0  0  0  0
    3.4066    1.7152   -6.3550 H   0  0  0  0  0  0  0  0  0  0  0  0
    4.1737   -0.4526   -5.7673 H   0  0  0  0  0  0  0  0  0  0  0  0
    4.8893    1.6419   -1.4022 H   0  0  0  0  0  0  0  0  0  0  0  0
    7.3223    1.6277   -1.3363 H   0  0  0  0  0  0  0  0  0  0  0  0
   11.6249    2.0855   -0.3934 H   0  0  0  0  0  0  0  0  0  0  0  0
   11.8811    0.3689    1.7071 H   0  0  0  0  0  0  0  0  0  0  0  0
   10.9638   -0.4574    3.8655 H   0  0  0  0  0  0  0  0  0  0  0  0
   10.2025   -2.1443    5.5018 H   0  0  0  0  0  0  0  0  0  0  0  0
    6.6573   -2.8331    3.2079 H   0  0  0  0  0  0  0  0  0  0  0  0
    7.4598   -1.2988    1.4722 H   0  0  0  0  0  0  0  0  0  0  0  0
    7.1882    1.2017    2.9667 H   0  0  0  0  0  0  0  0  0  0  0  0
    4.7421    1.0588    2.8672 H   0  0  0  0  0  0  0  0  0  0  0  0
  1  2  1  0  0  0  0
  1 31  1  0  0  0  0
  1 32  1  0  0  0  0
  1 33  1  0  0  0  0
  2  3  1  0  0  0  0
  2 11  1  0  0  0  0
  3  4  1  0  0  0  0
  3 34  1  0  0  0  0
  3 35  1  0  0  0  0
  4  5  2  0  0  0  0
  4  9  1  0  0  0  0
  5  6  1  0  0  0  0
  5 36  1  0  0  0  0
  6  7  2  0  0  0  0
  6 37  1  0  0  0  0
  7  8  1  0  0  0  0
  7 38  1  0  0  0  0
  8  9  1  0  0  0  0
  8 39  1  0  0  0  0
  9 10  2  0  0  0  0
 11 12  2  0  0  0  0
 11 13  1  0  0  0  0
 13 14  2  0  0  0  0
 13 30  1  0  0  0  0
 14 15  1  0  0  0  0
 14 40  1  0  0  0  0
 15 16  2  0  0  0  0
 15 41  1  0  0  0  0
 16 17  1  0  0  0  0
 16 29  1  0  0  0  0
 17 18  1  0  0  0  0
 17 21  1  0  0  0  0
 18 19  2  0  0  0  0
 19 20  1  0  0  0  0
 19 42  1  0  0  0  0
 20 21  2  0  0  0  0
 20 43  1  0  0  0  0
 21 22  1  0  0  0  0
 22 23  2  0  0  0  0
 22 28  1  0  0  0  0
 23 24  1  0  0  0  0
 23 44  1  0  0  0  0
 24 25  2  0  0  0  0
 24 45  1  0  0  0  0
 25 26  1  0  0  0  0
 25 27  1  0  0  0  0
 27 28  2  0  0  0  0
 27 46  1  0  0  0  0
 28 47  1  0  0  0  0
 29 30  2  0  0  0  0
 29 48  1  0  0  0  0
 30 49  1  0  0  0  0
M  END
$$$$
