
 OpenBabel01122422423D

 44 47  0  0  0  0  0  0  0  0999 V2000
    0.9355   -0.0903    0.0608 O   0  0  0  0  0  0  0  0  0  0  0  0
    2.1580    0.0447    0.0222 C   0  0  0  0  0  0  0  0  0  0  0  0
    2.8308    1.2539    0.0280 N   0  0  0  0  0  0  0  0  0  0  0  0
    2.2154    2.5174    0.1967 C   0  0  0  0  0  0  0  0  0  0  0  0
    0.9123    2.6657    0.6718 C   0  0  0  0  0  0  0  0  0  0  0  0
    0.3143    3.9238    0.7623 C   0  0  0  0  0  0  0  0  0  0  0  0
    1.0117    5.0801    0.3933 C   0  0  0  0  0  0  0  0  0  0  0  0
    0.3389    6.3752    0.4248 C   0  0  0  0  0  0  0  0  0  0  0  0
   -0.6513    6.7935    1.2341 C   0  0  0  0  0  0  0  0  0  0  0  0
   -1.0114    8.0666    0.8734 N   0  0  0  0  0  0  0  0  0  0  0  0
   -0.2273    8.4766   -0.2103 C   0  0  0  0  0  0  0  0  0  0  0  0
   -0.2776    9.5322   -0.8095 O   0  0  0  0  0  0  0  0  0  0  0  0
    0.6195    7.3911   -0.4590 N   0  0  0  0  0  0  0  0  0  0  0  0
    2.3388    4.9361   -0.0356 C   0  0  0  0  0  0  0  0  0  0  0  0
    2.9403    3.6687   -0.1230 C   0  0  0  0  0  0  0  0  0  0  0  0
    3.0184   -1.1749   -0.1050 C   0  0  0  0  0  0  0  0  0  0  0  0
    2.4213   -2.2612   -0.6256 C   0  0  0  0  0  0  0  0  0  0  0  0
    3.0647   -3.4894   -0.7410 N   0  0  0  0  0  0  0  0  0  0  0  0
    2.3671   -4.6257   -1.2662 C   0  0  0  0  0  0  0  0  0  0  0  0
    2.9638   -5.4368   -2.2408 C   0  0  0  0  0  0  0  0  0  0  0  0
    2.2820   -6.5418   -2.7605 C   0  0  0  0  0  0  0  0  0  0  0  0
    1.0097   -6.8673   -2.2910 C   0  0  0  0  0  0  0  0  0  0  0  0
    0.4068   -6.0737   -1.3179 C   0  0  0  0  0  0  0  0  0  0  0  0
    1.0756   -4.9540   -0.8272 C   0  0  0  0  0  0  0  0  0  0  0  0
    0.4750   -4.2309    0.1309 F   0  0  0  0  0  0  0  0  0  0  0  0
    4.3781   -3.6628   -0.2745 C   0  0  0  0  0  0  0  0  0  0  0  0
    5.0234   -4.7090   -0.2811 O   0  0  0  0  0  0  0  0  0  0  0  0
    5.0150   -2.4577    0.3354 C   0  0  0  0  0  0  0  0  0  0  0  0
    4.3646   -1.2883    0.4062 C   0  0  0  0  0  0  0  0  0  0  0  0
    3.8084    1.2566   -0.2280 H   0  0  0  0  0  0  0  0  0  0  0  0
    0.3146    1.8152    0.9852 H   0  0  0  0  0  0  0  0  0  0  0  0
   -0.7187    3.9775    1.1016 H   0  0  0  0  0  0  0  0  0  0  0  0
   -1.1452    6.2747    2.0417 H   0  0  0  0  0  0  0  0  0  0  0  0
   -1.7386    8.6345    1.2802 H   0  0  0  0  0  0  0  0  0  0  0  0
    1.2746    7.3649   -1.2233 H   0  0  0  0  0  0  0  0  0  0  0  0
    2.9235    5.8119   -0.3074 H   0  0  0  0  0  0  0  0  0  0  0  0
    3.9677    3.6058   -0.4710 H   0  0  0  0  0  0  0  0  0  0  0  0
    1.3998   -2.2166   -1.0000 H   0  0  0  0  0  0  0  0  0  0  0  0
    3.9537   -5.2001   -2.6238 H   0  0  0  0  0  0  0  0  0  0  0  0
    2.7511   -7.1521   -3.5287 H   0  0  0  0  0  0  0  0  0  0  0  0
    0.4930   -7.7418   -2.6784 H   0  0  0  0  0  0  0  0  0  0  0  0
   -0.5742   -6.3247   -0.9267 H   0  0  0  0  0  0  0  0  0  0  0  0
    6.0085   -2.6026    0.7417 H   0  0  0  0  0  0  0  0  0  0  0  0
    4.8315   -0.4399    0.8932 H   0  0  0  0  0  0  0  0  0  0  0  0
  1  2  2  0  0  0  0
  2  3  1  0  0  0  0
  2 16  1  0  0  0  0
  3  4  1  0  0  0  0
  3 30  1  0  0  0  0
  4  5  2  0  0  0  0
  4 15  1  0  0  0  0
  5  6  1  0  0  0  0
  5 31  1  0  0  0  0
  6  7  2  0  0  0  0
  6 32  1  0  0  0  0
  7  8  1  0  0  0  0
  7 14  1  0  0  0  0
  8  9  2  0  0  0  0
  8 13  1  0  0  0  0
  9 10  1  0  0  0  0
  9 33  1  0  0  0  0
 10 11  1  0  0  0  0
 10 34  1  0  0  0  0
 11 12  2  0  0  0  0
 11 13  1  0  0  0  0
 13 35  1  0  0  0  0
 14 15  2  0  0  0  0
 14 36  1  0  0  0  0
 15 37  1  0  0  0  0
 16 17  2  0  0  0  0
 16 29  1  0  0  0  0
 17 18  1  0  0  0  0
 17 38  1  0  0  0  0
 18 19  1  0  0  0  0
 18 26  1  0  0  0  0
 19 20  2  0  0  0  0
 19 24  1  0  0  0  0
 20 21  1  0  0  0  0
 20 39  1  0  0  0  0
 21 22  2  0  0  0  0
 21 40  1  0  0  0  0
 22 23  1  0  0  0  0
 22 41  1  0  0  0  0
 23 24  2  0  0  0  0
 23 42  1  0  0  0  0
 24 25  1  0  0  0  0
 26 27  2  0  0  0  0
 26 28  1  0  0  0  0
 28 29  2  0  0  0  0
 28 43  1  0  0  0  0
 29 44  1  0  0  0  0
M  END
$$$$
