
 OpenBabel01122422423D

 46 49  0  0  0  0  0  0  0  0999 V2000
    7.2974   -3.7724    0.1321 C   0  0  0  0  0  0  0  0  0  0  0  0
    6.6812   -2.4918   -0.1421 N   0  0  0  0  0  0  0  0  0  0  0  0
    5.3576   -2.4128   -0.4991 C   0  0  0  0  0  0  0  0  0  0  0  0
    4.7151   -1.3145   -0.7139 N   0  0  0  0  0  0  0  0  0  0  0  0
    5.4170   -0.1115   -0.5638 C   0  0  0  0  0  0  0  0  0  0  0  0
    4.7336    1.0935   -0.7257 C   0  0  0  0  0  0  0  0  0  0  0  0
    5.4055    2.3104   -0.5805 C   0  0  0  0  0  0  0  0  0  0  0  0
    6.7784    2.3334   -0.2908 C   0  0  0  0  0  0  0  0  0  0  0  0
    7.4419    3.6492   -0.1204 C   0  0  0  0  0  0  0  0  0  0  0  0
    6.7595    4.5773    0.2987 O   0  0  0  0  0  0  0  0  0  0  0  0
    8.7705    3.7215   -0.5237 N   0  0  0  0  0  0  0  0  0  0  0  0
    9.5678    4.8856   -0.4414 C   0  0  0  0  0  0  0  0  0  0  0  0
    9.2580    5.9407    0.4137 C   0  0  0  0  0  0  0  0  0  0  0  0
   10.0033    7.1168    0.3941 C   0  0  0  0  0  0  0  0  0  0  0  0
   11.0336    7.2809   -0.5345 C   0  0  0  0  0  0  0  0  0  0  0  0
   11.6914    8.4881   -0.6873 O   0  0  0  0  0  0  0  0  0  0  0  0
   10.9578    9.6523   -0.5839 C   0  0  0  0  0  0  0  0  0  0  0  0
   11.6119   10.7586   -0.0410 C   0  0  0  0  0  0  0  0  0  0  0  0
   10.9149   11.9529    0.1599 C   0  0  0  0  0  0  0  0  0  0  0  0
    9.5653   12.0425   -0.1827 C   0  0  0  0  0  0  0  0  0  0  0  0
    8.9229   10.9552   -0.7705 C   0  0  0  0  0  0  0  0  0  0  0  0
    9.6262    9.7733   -1.0018 C   0  0  0  0  0  0  0  0  0  0  0  0
   11.4277    6.1914   -1.3193 C   0  0  0  0  0  0  0  0  0  0  0  0
   12.5406    6.2900   -2.2195 C   0  0  0  0  0  0  0  0  0  0  0  0
   13.4339    6.3252   -2.9584 N   0  0  0  0  0  0  0  0  0  0  0  0
   10.7004    4.9863   -1.2574 C   0  0  0  0  0  0  0  0  0  0  0  0
    7.4686    1.1361   -0.1094 C   0  0  0  0  0  0  0  0  0  0  0  0
    6.7765   -0.0731   -0.2443 C   0  0  0  0  0  0  0  0  0  0  0  0
    7.4641   -1.3554   -0.0172 C   0  0  0  0  0  0  0  0  0  0  0  0
    8.6589   -1.3649    0.2657 O   0  0  0  0  0  0  0  0  0  0  0  0
    6.5901   -4.5945   -0.0021 H   0  0  0  0  0  0  0  0  0  0  0  0
    7.6623   -3.7716    1.1645 H   0  0  0  0  0  0  0  0  0  0  0  0
    8.1526   -3.9088   -0.5368 H   0  0  0  0  0  0  0  0  0  0  0  0
    4.8441   -3.3818   -0.6021 H   0  0  0  0  0  0  0  0  0  0  0  0
    3.6702    1.0845   -0.9535 H   0  0  0  0  0  0  0  0  0  0  0  0
    4.8525    3.2427   -0.6881 H   0  0  0  0  0  0  0  0  0  0  0  0
    9.1329    2.9572   -1.0797 H   0  0  0  0  0  0  0  0  0  0  0  0
    8.4249    5.8849    1.1095 H   0  0  0  0  0  0  0  0  0  0  0  0
    9.7209    7.9199    1.0709 H   0  0  0  0  0  0  0  0  0  0  0  0
   12.6593   10.6903    0.2411 H   0  0  0  0  0  0  0  0  0  0  0  0
   11.4207   12.8113    0.5946 H   0  0  0  0  0  0  0  0  0  0  0  0
    9.0151   12.9618    0.0009 H   0  0  0  0  0  0  0  0  0  0  0  0
    7.8726   11.0213   -1.0430 H   0  0  0  0  0  0  0  0  0  0  0  0
    9.1089    8.9439   -1.4757 H   0  0  0  0  0  0  0  0  0  0  0  0
   10.9984    4.1541   -1.8929 H   0  0  0  0  0  0  0  0  0  0  0  0
    8.5173    1.1258    0.1758 H   0  0  0  0  0  0  0  0  0  0  0  0
  1  2  1  0  0  0  0
  1 31  1  0  0  0  0
  1 32  1  0  0  0  0
  1 33  1  0  0  0  0
  2  3  1  0  0  0  0
  2 29  1  0  0  0  0
  3  4  2  0  0  0  0
  3 34  1  0  0  0  0
  4  5  1  0  0  0  0
  5  6  2  0  0  0  0
  5 28  1  0  0  0  0
  6  7  1  0  0  0  0
  6 35  1  0  0  0  0
  7  8  2  0  0  0  0
  7 36  1  0  0  0  0
  8  9  1  0  0  0  0
  8 27  1  0  0  0  0
  9 10  2  0  0  0  0
  9 11  1  0  0  0  0
 11 12  1  0  0  0  0
 11 37  1  0  0  0  0
 12 13  2  0  0  0  0
 12 26  1  0  0  0  0
 13 14  1  0  0  0  0
 13 38  1  0  0  0  0
 14 15  2  0  0  0  0
 14 39  1  0  0  0  0
 15 16  1  0  0  0  0
 15 23  1  0  0  0  0
 16 17  1  0  0  0  0
 17 18  2  0  0  0  0
 17 22  1  0  0  0  0
 18 19  1  0  0  0  0
 18 40  1  0  0  0  0
 19 20  2  0  0  0  0
 19 41  1  0  0  0  0
 20 21  1  0  0  0  0
 20 42  1  0  0  0  0
 21 22  2  0  0  0  0
 21 43  1  0  0  0  0
 22 44  1  0  0  0  0
 23 24  1  0  0  0  0
 23 26  2  0  0  0  0
 24 25  3  0  0  0  0
 26 45  1  0  0  0  0
 27 28  2  0  0  0  0
 27 46  1  0  0  0  0
 28 29  1  0  0  0  0
 29 30  2  0  0  0  0
M  END
$$$$
