
 OpenBabel01122422423D

 41 44  0  0  0  0  0  0  0  0999 V2000
    0.9947   -0.0613   -0.4700 O   0  0  0  0  0  0  0  0  0  0  0  0
    2.1678   -0.0077   -0.1182 C   0  0  0  0  0  0  0  0  0  0  0  0
    2.8064   -0.8974    0.7319 N   0  0  0  0  0  0  0  0  0  0  0  0
    2.1994   -2.0110    1.3499 C   0  0  0  0  0  0  0  0  0  0  0  0
    0.9597   -2.5026    0.9629 C   0  0  0  0  0  0  0  0  0  0  0  0
    0.3732   -3.5559    1.6548 C   0  0  0  0  0  0  0  0  0  0  0  0
    1.0396   -4.1350    2.7306 C   0  0  0  0  0  0  0  0  0  0  0  0
    0.4177   -5.2111    3.5229 C   0  0  0  0  0  0  0  0  0  0  0  0
   -0.4662   -6.1346    2.9409 C   0  0  0  0  0  0  0  0  0  0  0  0
   -1.1005   -7.0725    3.7395 C   0  0  0  0  0  0  0  0  0  0  0  0
   -0.9126   -7.1690    5.0688 N   0  0  0  0  0  0  0  0  0  0  0  0
   -0.0409   -6.2969    5.6177 C   0  0  0  0  0  0  0  0  0  0  0  0
    0.6389   -5.3233    4.9002 C   0  0  0  0  0  0  0  0  0  0  0  0
    2.2667   -3.6956    3.1148 N   0  0  0  0  0  0  0  0  0  0  0  0
    2.8158   -2.6631    2.4149 C   0  0  0  0  0  0  0  0  0  0  0  0
    3.0074    1.1167   -0.5495 C   0  0  0  0  0  0  0  0  0  0  0  0
    4.3144    1.2296   -0.2490 N   0  0  0  0  0  0  0  0  0  0  0  0
    4.6766    2.4448   -0.7495 N   0  0  0  0  0  0  0  0  0  0  0  0
    5.9788    2.9668   -0.5302 C   0  0  0  0  0  0  0  0  0  0  0  0
    6.9623    2.1583    0.0554 C   0  0  0  0  0  0  0  0  0  0  0  0
    8.2236    2.6893    0.3134 C   0  0  0  0  0  0  0  0  0  0  0  0
    9.1598    1.9131    0.8734 F   0  0  0  0  0  0  0  0  0  0  0  0
    8.5271    4.0083    0.0089 C   0  0  0  0  0  0  0  0  0  0  0  0
    7.5496    4.7992   -0.5766 C   0  0  0  0  0  0  0  0  0  0  0  0
    7.8219    6.0774   -0.8685 F   0  0  0  0  0  0  0  0  0  0  0  0
    6.2832    4.2950   -0.8590 C   0  0  0  0  0  0  0  0  0  0  0  0
    3.6327    3.0582   -1.4017 C   0  0  0  0  0  0  0  0  0  0  0  0
    2.5500    2.2271   -1.2951 C   0  0  0  0  0  0  0  0  0  0  0  0
    3.7527   -0.6333    0.9945 H   0  0  0  0  0  0  0  0  0  0  0  0
    0.4062   -2.0947    0.1248 H   0  0  0  0  0  0  0  0  0  0  0  0
   -0.6159   -3.8839    1.3559 H   0  0  0  0  0  0  0  0  0  0  0  0
   -0.6714   -6.1332    1.8752 H   0  0  0  0  0  0  0  0  0  0  0  0
   -1.8014   -7.7846    3.3132 H   0  0  0  0  0  0  0  0  0  0  0  0
    0.0953   -6.3961    6.6906 H   0  0  0  0  0  0  0  0  0  0  0  0
    1.3133   -4.6453    5.4141 H   0  0  0  0  0  0  0  0  0  0  0  0
    3.7938   -2.3534    2.7769 H   0  0  0  0  0  0  0  0  0  0  0  0
    6.7732    1.1195    0.3130 H   0  0  0  0  0  0  0  0  0  0  0  0
    9.5069    4.4144    0.2260 H   0  0  0  0  0  0  0  0  0  0  0  0
    5.5646    4.9752   -1.3032 H   0  0  0  0  0  0  0  0  0  0  0  0
    3.7241    4.0228   -1.8766 H   0  0  0  0  0  0  0  0  0  0  0  0
    1.5485    2.3958   -1.6690 H   0  0  0  0  0  0  0  0  0  0  0  0
  1  2  2  0  0  0  0
  2  3  1  0  0  0  0
  2 16  1  0  0  0  0
  3  4  1  0  0  0  0
  3 29  1  0  0  0  0
  4  5  2  0  0  0  0
  4 15  1  0  0  0  0
  5  6  1  0  0  0  0
  5 30  1  0  0  0  0
  6  7  2  0  0  0  0
  6 31  1  0  0  0  0
  7  8  1  0  0  0  0
  7 14  1  0  0  0  0
  8  9  2  0  0  0  0
  8 13  1  0  0  0  0
  9 10  1  0  0  0  0
  9 32  1  0  0  0  0
 10 11  2  0  0  0  0
 10 33  1  0  0  0  0
 11 12  1  0  0  0  0
 12 13  2  0  0  0  0
 12 34  1  0  0  0  0
 13 35  1  0  0  0  0
 14 15  2  0  0  0  0
 15 36  1  0  0  0  0
 16 17  2  0  0  0  0
 16 28  1  0  0  0  0
 17 18  1  0  0  0  0
 18 19  1  0  0  0  0
 18 27  1  0  0  0  0
 19 20  2  0  0  0  0
 19 26  1  0  0  0  0
 20 21  1  0  0  0  0
 20 37  1  0  0  0  0
 21 22  1  0  0  0  0
 21 23  2  0  0  0  0
 23 24  1  0  0  0  0
 23 38  1  0  0  0  0
 24 25  1  0  0  0  0
 24 26  2  0  0  0  0
 26 39  1  0  0  0  0
 27 28  2  0  0  0  0
 27 40  1  0  0  0  0
 28 41  1  0  0  0  0
M  END
$$$$
