
 OpenBabel01122422423D

 44 47  0  0  0  0  0  0  0  0999 V2000
    1.0943   -0.2105    0.0223 O   0  0  0  0  0  0  0  0  0  0  0  0
    2.3113   -0.0681    0.0257 C   0  0  0  0  0  0  0  0  0  0  0  0
    2.9511    0.9274   -0.6700 N   0  0  0  0  0  0  0  0  0  0  0  0
    2.2367    1.9211   -1.4315 C   0  0  0  0  0  0  0  0  0  0  0  0
    3.2098    2.8681   -2.0841 C   0  0  0  0  0  0  0  0  0  0  0  0
    3.7848    2.5447   -3.3203 C   0  0  0  0  0  0  0  0  0  0  0  0
    4.7205    3.3954   -3.9140 C   0  0  0  0  0  0  0  0  0  0  0  0
    5.0545    4.6063   -3.3042 C   0  0  0  0  0  0  0  0  0  0  0  0
    5.9382    5.5245   -3.8262 O   0  0  0  0  0  0  0  0  0  0  0  0
    6.0220    5.7121   -5.1886 C   0  0  0  0  0  0  0  0  0  0  0  0
    4.9584    5.5566   -6.0790 C   0  0  0  0  0  0  0  0  0  0  0  0
    5.1741    5.7380   -7.4406 C   0  0  0  0  0  0  0  0  0  0  0  0
    4.1686    5.5216   -8.2988 F   0  0  0  0  0  0  0  0  0  0  0  0
    6.4148    6.1322   -7.9281 C   0  0  0  0  0  0  0  0  0  0  0  0
    7.4608    6.3574   -7.0357 C   0  0  0  0  0  0  0  0  0  0  0  0
    7.2634    6.1462   -5.6680 C   0  0  0  0  0  0  0  0  0  0  0  0
    4.5308    4.9071   -2.0454 C   0  0  0  0  0  0  0  0  0  0  0  0
    3.6184    4.0411   -1.4347 C   0  0  0  0  0  0  0  0  0  0  0  0
    3.1678   -0.9944    0.8205 C   0  0  0  0  0  0  0  0  0  0  0  0
    4.5584   -0.8535    0.8743 C   0  0  0  0  0  0  0  0  0  0  0  0
    5.2106    0.1023    0.1959 F   0  0  0  0  0  0  0  0  0  0  0  0
    5.2693   -1.7255    1.6634 C   0  0  0  0  0  0  0  0  0  0  0  0
    4.6441   -2.7322    2.3904 C   0  0  0  0  0  0  0  0  0  0  0  0
    3.2822   -2.9194    2.3590 C   0  0  0  0  0  0  0  0  0  0  0  0
    2.5395   -2.0339    1.5610 C   0  0  0  0  0  0  0  0  0  0  0  0
    5.6277   -3.4246    3.0888 N   0  0  0  0  0  0  0  0  0  0  0  0
    6.8768   -2.8522    2.8030 C   0  0  0  0  0  0  0  0  0  0  0  0
    7.9576   -3.2006    3.2439 O   0  0  0  0  0  0  0  0  0  0  0  0
    6.6391   -1.7988    1.9079 N   0  0  0  0  0  0  0  0  0  0  0  0
    3.9617    1.0033   -0.6380 H   0  0  0  0  0  0  0  0  0  0  0  0
    1.5536    2.4565   -0.7618 H   0  0  0  0  0  0  0  0  0  0  0  0
    1.6193    1.4159   -2.1834 H   0  0  0  0  0  0  0  0  0  0  0  0
    3.5104    1.6216   -3.8271 H   0  0  0  0  0  0  0  0  0  0  0  0
    5.1687    3.1016   -4.8589 H   0  0  0  0  0  0  0  0  0  0  0  0
    3.9650    5.2810   -5.7432 H   0  0  0  0  0  0  0  0  0  0  0  0
    6.5535    6.2690   -8.9958 H   0  0  0  0  0  0  0  0  0  0  0  0
    8.4282    6.6909   -7.4024 H   0  0  0  0  0  0  0  0  0  0  0  0
    8.0825    6.3176   -4.9732 H   0  0  0  0  0  0  0  0  0  0  0  0
    4.8324    5.8197   -1.5370 H   0  0  0  0  0  0  0  0  0  0  0  0
    3.2281    4.2888   -0.4495 H   0  0  0  0  0  0  0  0  0  0  0  0
    2.7961   -3.7050    2.9256 H   0  0  0  0  0  0  0  0  0  0  0  0
    1.4555   -2.1465    1.5160 H   0  0  0  0  0  0  0  0  0  0  0  0
    5.5044   -4.2033    3.7153 H   0  0  0  0  0  0  0  0  0  0  0  0
    7.3557   -1.2005    1.5282 H   0  0  0  0  0  0  0  0  0  0  0  0
  1  2  2  0  0  0  0
  2  3  1  0  0  0  0
  2 19  1  0  0  0  0
  3  4  1  0  0  0  0
  3 30  1  0  0  0  0
  4  5  1  0  0  0  0
  4 31  1  0  0  0  0
  4 32  1  0  0  0  0
  5  6  2  0  0  0  0
  5 18  1  0  0  0  0
  6  7  1  0  0  0  0
  6 33  1  0  0  0  0
  7  8  2  0  0  0  0
  7 34  1  0  0  0  0
  8  9  1  0  0  0  0
  8 17  1  0  0  0  0
  9 10  1  0  0  0  0
 10 11  2  0  0  0  0
 10 16  1  0  0  0  0
 11 12  1  0  0  0  0
 11 35  1  0  0  0  0
 12 13  1  0  0  0  0
 12 14  2  0  0  0  0
 14 15  1  0  0  0  0
 14 36  1  0  0  0  0
 15 16  2  0  0  0  0
 15 37  1  0  0  0  0
 16 38  1  0  0  0  0
 17 18  2  0  0  0  0
 17 39  1  0  0  0  0
 18 40  1  0  0  0  0
 19 20  2  0  0  0  0
 19 25  1  0  0  0  0
 20 21  1  0  0  0  0
 20 22  1  0  0  0  0
 22 23  2  0  0  0  0
 22 29  1  0  0  0  0
 23 24  1  0  0  0  0
 23 26  1  0  0  0  0
 24 25  2  0  0  0  0
 24 41  1  0  0  0  0
 25 42  1  0  0  0  0
 26 27  1  0  0  0  0
 26 43  1  0  0  0  0
 27 28  2  0  0  0  0
 27 29  1  0  0  0  0
 29 44  1  0  0  0  0
M  END
$$$$
