
 OpenBabel01122422423D

 43 46  0  0  0  0  0  0  0  0999 V2000
    1.0146   -0.2932    0.1865 O   0  0  0  0  0  0  0  0  0  0  0  0
    2.1978    0.0004    0.0691 C   0  0  0  0  0  0  0  0  0  0  0  0
    2.8731    0.7541    1.0072 N   0  0  0  0  0  0  0  0  0  0  0  0
    2.1895    1.3068    2.1620 C   0  0  0  0  0  0  0  0  0  0  0  0
    2.0920    0.2845    3.2357 C   0  0  0  0  0  0  0  0  0  0  0  0
    3.0266    0.1851    4.1907 N   0  0  0  0  0  0  0  0  0  0  0  0
    2.6271   -0.8742    4.9896 O   0  0  0  0  0  0  0  0  0  0  0  0
    1.4656   -1.4111    4.5090 C   0  0  0  0  0  0  0  0  0  0  0  0
    0.9390   -2.5803    5.2061 C   0  0  0  0  0  0  0  0  0  0  0  0
    1.5496   -3.0709    6.3708 C   0  0  0  0  0  0  0  0  0  0  0  0
    1.0653   -4.2238    6.9990 C   0  0  0  0  0  0  0  0  0  0  0  0
   -0.0352   -4.8882    6.4656 C   0  0  0  0  0  0  0  0  0  0  0  0
   -0.4844   -6.0012    7.0597 F   0  0  0  0  0  0  0  0  0  0  0  0
   -0.6678   -4.4152    5.3287 C   0  0  0  0  0  0  0  0  0  0  0  0
   -0.1808   -3.2686    4.7103 C   0  0  0  0  0  0  0  0  0  0  0  0
   -0.8155   -2.8440    3.6078 F   0  0  0  0  0  0  0  0  0  0  0  0
    1.0813   -0.6865    3.4071 C   0  0  0  0  0  0  0  0  0  0  0  0
    2.9747   -0.4279   -1.1214 C   0  0  0  0  0  0  0  0  0  0  0  0
    4.2906   -0.8877   -0.9431 C   0  0  0  0  0  0  0  0  0  0  0  0
    5.0227   -1.3422   -2.0343 C   0  0  0  0  0  0  0  0  0  0  0  0
    4.4083   -1.3471   -3.2693 C   0  0  0  0  0  0  0  0  0  0  0  0
    3.1485   -0.9099   -3.4775 N   0  0  0  0  0  0  0  0  0  0  0  0
    2.4262   -0.4358   -2.4151 C   0  0  0  0  0  0  0  0  0  0  0  0
    1.0988    0.0929   -2.8201 C   0  0  0  0  0  0  0  0  0  0  0  0
    0.3691   -0.5240   -3.8491 C   0  0  0  0  0  0  0  0  0  0  0  0
   -0.8532    0.0011   -4.2373 C   0  0  0  0  0  0  0  0  0  0  0  0
   -1.4147    1.0927   -3.6791 N   0  0  0  0  0  0  0  0  0  0  0  0
   -0.7092    1.6852   -2.6975 C   0  0  0  0  0  0  0  0  0  0  0  0
    0.5336    1.2482   -2.2614 C   0  0  0  0  0  0  0  0  0  0  0  0
    3.8728    0.8879    0.9548 H   0  0  0  0  0  0  0  0  0  0  0  0
    1.1917    1.6473    1.8632 H   0  0  0  0  0  0  0  0  0  0  0  0
    2.7597    2.1800    2.4956 H   0  0  0  0  0  0  0  0  0  0  0  0
    2.4136   -2.5693    6.8010 H   0  0  0  0  0  0  0  0  0  0  0  0
    1.5433   -4.6089    7.8936 H   0  0  0  0  0  0  0  0  0  0  0  0
   -1.5278   -4.9345    4.9196 H   0  0  0  0  0  0  0  0  0  0  0  0
    0.2171   -0.8489    2.7770 H   0  0  0  0  0  0  0  0  0  0  0  0
    4.7457   -0.9244    0.0429 H   0  0  0  0  0  0  0  0  0  0  0  0
    6.0404   -1.6992   -1.9210 H   0  0  0  0  0  0  0  0  0  0  0  0
    4.9238   -1.7114   -4.1541 H   0  0  0  0  0  0  0  0  0  0  0  0
    0.7546   -1.4054   -4.3543 H   0  0  0  0  0  0  0  0  0  0  0  0
   -1.4273   -0.4528   -5.0413 H   0  0  0  0  0  0  0  0  0  0  0  0
   -1.1785    2.5576   -2.2512 H   0  0  0  0  0  0  0  0  0  0  0  0
    1.0333    1.8116   -1.4829 H   0  0  0  0  0  0  0  0  0  0  0  0
  1  2  2  0  0  0  0
  2  3  1  0  0  0  0
  2 18  1  0  0  0  0
  3  4  1  0  0  0  0
  3 30  1  0  0  0  0
  4  5  1  0  0  0  0
  4 31  1  0  0  0  0
  4 32  1  0  0  0  0
  5  6  2  0  0  0  0
  5 17  1  0  0  0  0
  6  7  1  0  0  0  0
  7  8  1  0  0  0  0
  8  9  1  0  0  0  0
  8 17  2  0  0  0  0
  9 10  2  0  0  0  0
  9 15  1  0  0  0  0
 10 11  1  0  0  0  0
 10 33  1  0  0  0  0
 11 12  2  0  0  0  0
 11 34  1  0  0  0  0
 12 13  1  0  0  0  0
 12 14  1  0  0  0  0
 14 15  2  0  0  0  0
 14 35  1  0  0  0  0
 15 16  1  0  0  0  0
 17 36  1  0  0  0  0
 18 19  2  0  0  0  0
 18 23  1  0  0  0  0
 19 20  1  0  0  0  0
 19 37  1  0  0  0  0
 20 21  2  0  0  0  0
 20 38  1  0  0  0  0
 21 22  1  0  0  0  0
 21 39  1  0  0  0  0
 22 23  2  0  0  0  0
 23 24  1  0  0  0  0
 24 25  2  0  0  0  0
 24 29  1  0  0  0  0
 25 26  1  0  0  0  0
 25 40  1  0  0  0  0
 26 27  2  0  0  0  0
 26 41  1  0  0  0  0
 27 28  1  0  0  0  0
 28 29  2  0  0  0  0
 28 42  1  0  0  0  0
 29 43  1  0  0  0  0
M  END
$$$$
