
     RDKit          3D

 33 37  0  0  0  0  0  0  0  0999 V2000
  122.8099  145.4835  126.6463 C   0  0  0  0  0  0  0  0  0  0  0  0
  124.1923  145.4620  127.0063 O   0  0  0  0  0  0  0  0  0  0  0  0
  124.6467  145.4429  128.3003 C   0  0  0  0  0  0  0  0  0  0  0  0
  123.8289  145.6381  129.2338 O   0  0  0  0  0  0  0  0  0  0  0  0
  126.0048  145.2128  128.6559 N   0  0  0  0  0  0  0  0  0  0  0  0
  126.3768  145.2127  130.0397 C   0  0  0  0  0  0  0  0  0  0  0  0
  127.6100  145.3894  130.5452 N   0  0  0  0  0  0  0  0  0  0  0  0
  127.5811  145.3255  131.8998 C   0  0  0  0  0  0  0  0  0  0  0  0
  128.5649  145.4429  132.8558 C   0  0  0  0  0  0  0  0  0  0  0  0
  128.2468  145.3325  134.2173 C   0  0  0  0  0  0  0  0  0  0  0  0
  126.9473  145.1086  134.5375 C   0  0  0  0  0  0  0  0  0  0  0  0
  125.9403  144.9881  133.5670 C   0  0  0  0  0  0  0  0  0  0  0  0
  126.2493  145.0962  132.2281 C   0  0  0  0  0  0  0  0  0  0  0  0
  125.5351  145.0316  131.0724 N   0  0  0  0  0  0  0  0  0  0  0  0
  129.3380  145.4631  135.1541 C   0  0  0  0  0  0  0  0  0  0  0  0
  130.5288  145.6636  134.3115 O   0  0  0  0  0  0  0  0  0  0  0  0
  129.4178  146.5051  136.0774 N   0  0  0  0  0  0  0  0  0  0  0  0
  130.0296  146.0060  137.2752 C   0  0  0  0  0  0  0  0  0  0  0  0
  130.4206  146.6804  138.2713 O   0  0  0  0  0  0  0  0  0  0  0  0
  130.1128  144.5658  137.1187 C   0  0  0  0  0  0  0  0  0  0  0  0
  130.5291  143.5397  137.9865 C   0  0  0  0  0  0  0  0  0  0  0  0
  130.4216  142.2119  137.6322 C   0  0  0  0  0  0  0  0  0  0  0  0
  129.8904  141.9014  136.3922 C   0  0  0  0  0  0  0  0  0  0  0  0
  129.4702  142.8667  135.5060 C   0  0  0  0  0  0  0  0  0  0  0  0
  129.5990  144.2100  135.9056 C   0  0  0  0  0  0  0  0  0  0  0  0
  129.0511  147.9067  135.9769 C   0  0  0  0  0  0  0  0  0  0  0  0
  129.8994  148.8015  135.3598 C   0  0  0  0  0  0  0  0  0  0  0  0
  129.5810  150.1599  135.2895 C   0  0  0  0  0  0  0  0  0  0  0  0
  130.6546  151.3036  134.5072 Cl  0  0  0  0  0  0  0  0  0  0  0  0
  128.4111  150.6399  135.8350 C   0  0  0  0  0  0  0  0  0  0  0  0
  127.5649  149.7490  136.4514 C   0  0  0  0  0  0  0  0  0  0  0  0
  127.8887  148.3864  136.5203 C   0  0  0  0  0  0  0  0  0  0  0  0
  126.9496  147.5046  137.2387 C   0  0  0  0  0  0  0  0  0  0  0  0
  1  2  1  0
  2  3  1  0
  3  4  2  0
  3  5  1  0
  5  6  1  0
  6  7  2  0
  7  8  1  0
  8  9  2  0
  9 10  1  0
 10 11  2  0
 11 12  1  0
 12 13  2  0
 13 14  1  0
 10 15  1  0
 15 16  1  0
 15 17  1  0
 17 18  1  0
 18 19  2  0
 18 20  1  0
 20 21  2  0
 21 22  1  0
 22 23  2  0
 23 24  1  0
 24 25  2  0
 17 26  1  0
 26 27  2  0
 27 28  1  0
 28 29  1  0
 28 30  2  0
 30 31  1  0
 31 32  2  0
 32 33  1  0
 14  6  1  0
 25 15  1  0
 32 26  1  0
 13  8  1  0
 25 20  1  0
M  END
$$$$
