
     RDKit          3D

 33 37  0  0  0  0  0  0  0  0999 V2000
  149.9318  162.5355  121.7354 C   0  0  0  0  0  0  0  0  0  0  0  0
  149.9370  163.6238  122.6609 O   0  0  0  0  0  0  0  0  0  0  0  0
  149.5933  163.5063  123.9835 C   0  0  0  0  0  0  0  0  0  0  0  0
  150.0795  162.5626  124.6554 O   0  0  0  0  0  0  0  0  0  0  0  0
  148.7088  164.3985  124.6509 N   0  0  0  0  0  0  0  0  0  0  0  0
  148.6344  164.3725  126.0815 C   0  0  0  0  0  0  0  0  0  0  0  0
  148.0830  165.3036  126.8793 N   0  0  0  0  0  0  0  0  0  0  0  0
  148.1985  164.9413  128.1815 C   0  0  0  0  0  0  0  0  0  0  0  0
  147.7996  165.5462  129.3521 C   0  0  0  0  0  0  0  0  0  0  0  0
  148.0533  164.9342  130.5883 C   0  0  0  0  0  0  0  0  0  0  0  0
  148.6986  163.7406  130.5719 C   0  0  0  0  0  0  0  0  0  0  0  0
  149.1076  163.1194  129.3814 C   0  0  0  0  0  0  0  0  0  0  0  0
  148.8597  163.7180  128.1648 C   0  0  0  0  0  0  0  0  0  0  0  0
  149.1142  163.3937  126.8687 N   0  0  0  0  0  0  0  0  0  0  0  0
  147.6063  165.6376  131.7676 C   0  0  0  0  0  0  0  0  0  0  0  0
  146.5040  166.4919  131.2950 O   0  0  0  0  0  0  0  0  0  0  0  0
  147.0576  164.9854  132.8713 N   0  0  0  0  0  0  0  0  0  0  0  0
  147.4438  165.6942  134.0572 C   0  0  0  0  0  0  0  0  0  0  0  0
  147.0132  165.5092  135.2321 O   0  0  0  0  0  0  0  0  0  0  0  0
  148.4323  166.6720  133.6418 C   0  0  0  0  0  0  0  0  0  0  0  0
  149.2283  167.5812  134.3622 C   0  0  0  0  0  0  0  0  0  0  0  0
  150.1825  168.3536  133.7352 C   0  0  0  0  0  0  0  0  0  0  0  0
  150.3462  168.2177  132.3675 C   0  0  0  0  0  0  0  0  0  0  0  0
  149.5925  167.3448  131.6166 C   0  0  0  0  0  0  0  0  0  0  0  0
  148.6281  166.5763  132.2947 C   0  0  0  0  0  0  0  0  0  0  0  0
  146.1847  163.8286  132.9664 C   0  0  0  0  0  0  0  0  0  0  0  0
  144.8192  163.9805  132.8502 C   0  0  0  0  0  0  0  0  0  0  0  0
  143.9622  162.8850  132.9789 C   0  0  0  0  0  0  0  0  0  0  0  0
  142.2252  163.0703  132.8330 Cl  0  0  0  0  0  0  0  0  0  0  0  0
  144.4597  161.6246  133.2253 C   0  0  0  0  0  0  0  0  0  0  0  0
  145.8209  161.4719  133.3423 C   0  0  0  0  0  0  0  0  0  0  0  0
  146.6775  162.5745  133.2130 C   0  0  0  0  0  0  0  0  0  0  0  0
  148.1209  162.3336  133.3978 C   0  0  0  0  0  0  0  0  0  0  0  0
  1  2  1  0
  2  3  1  0
  3  4  2  0
  3  5  1  0
  5  6  1  0
  6  7  2  0
  7  8  1  0
  8  9  2  0
  9 10  1  0
 10 11  2  0
 11 12  1  0
 12 13  2  0
 13 14  1  0
 10 15  1  0
 15 16  1  0
 15 17  1  0
 17 18  1  0
 18 19  2  0
 18 20  1  0
 20 21  2  0
 21 22  1  0
 22 23  2  0
 23 24  1  0
 24 25  2  0
 17 26  1  0
 26 27  2  0
 27 28  1  0
 28 29  1  0
 28 30  2  0
 30 31  1  0
 31 32  2  0
 32 33  1  0
 14  6  1  0
 25 15  1  0
 32 26  1  0
 13  8  1  0
 25 20  1  0
M  END
$$$$
