
     RDKit          3D

 33 37  0  0  0  0  0  0  0  0999 V2000
  144.8648  171.2084  152.2538 C   0  0  0  0  0  0  0  0  0  0  0  0
  144.9796  172.1285  151.1670 O   0  0  0  0  0  0  0  0  0  0  0  0
  144.6543  173.4583  151.2514 C   0  0  0  0  0  0  0  0  0  0  0  0
  143.9976  173.8607  152.2441 O   0  0  0  0  0  0  0  0  0  0  0  0
  145.0192  174.4233  150.2719 N   0  0  0  0  0  0  0  0  0  0  0  0
  144.4178  175.7232  150.3104 C   0  0  0  0  0  0  0  0  0  0  0  0
  144.5528  176.7036  149.4004 N   0  0  0  0  0  0  0  0  0  0  0  0
  143.8373  177.7953  149.7694 C   0  0  0  0  0  0  0  0  0  0  0  0
  143.6565  179.0281  149.1837 C   0  0  0  0  0  0  0  0  0  0  0  0
  142.8436  179.9921  149.7977 C   0  0  0  0  0  0  0  0  0  0  0  0
  142.2568  179.6548  150.9739 C   0  0  0  0  0  0  0  0  0  0  0  0
  142.4377  178.3995  151.5754 C   0  0  0  0  0  0  0  0  0  0  0  0
  143.2358  177.4498  150.9747 C   0  0  0  0  0  0  0  0  0  0  0  0
  143.6074  176.1780  151.2821 N   0  0  0  0  0  0  0  0  0  0  0  0
  142.7110  181.2602  149.1197 C   0  0  0  0  0  0  0  0  0  0  0  0
  143.4061  181.0693  147.8357 O   0  0  0  0  0  0  0  0  0  0  0  0
  141.4765  181.7874  148.7422 N   0  0  0  0  0  0  0  0  0  0  0  0
  141.5367  183.2160  148.8590 C   0  0  0  0  0  0  0  0  0  0  0  0
  140.6777  184.0522  148.4555 O   0  0  0  0  0  0  0  0  0  0  0  0
  142.7850  183.5156  149.5353 C   0  0  0  0  0  0  0  0  0  0  0  0
  143.3455  184.7181  150.0036 C   0  0  0  0  0  0  0  0  0  0  0  0
  144.5260  184.7309  150.7152 C   0  0  0  0  0  0  0  0  0  0  0  0
  145.1586  183.5252  150.9644 C   0  0  0  0  0  0  0  0  0  0  0  0
  144.6536  182.3221  150.5273 C   0  0  0  0  0  0  0  0  0  0  0  0
  143.4475  182.3530  149.8027 C   0  0  0  0  0  0  0  0  0  0  0  0
  140.2727  181.1481  148.2409 C   0  0  0  0  0  0  0  0  0  0  0  0
  140.2095  180.7221  146.9311 C   0  0  0  0  0  0  0  0  0  0  0  0
  139.0457  180.1416  146.4211 C   0  0  0  0  0  0  0  0  0  0  0  0
  138.9575  179.5981  144.7569 Cl  0  0  0  0  0  0  0  0  0  0  0  0
  137.9315  179.9799  147.2143 C   0  0  0  0  0  0  0  0  0  0  0  0
  137.9928  180.4050  148.5201 C   0  0  0  0  0  0  0  0  0  0  0  0
  139.1629  180.9878  149.0277 C   0  0  0  0  0  0  0  0  0  0  0  0
  139.1313  181.4589  150.4251 C   0  0  0  0  0  0  0  0  0  0  0  0
  1  2  1  0
  2  3  1  0
  3  4  2  0
  3  5  1  0
  5  6  1  0
  6  7  2  0
  7  8  1  0
  8  9  2  0
  9 10  1  0
 10 11  2  0
 11 12  1  0
 12 13  2  0
 13 14  1  0
 10 15  1  0
 15 16  1  0
 15 17  1  0
 17 18  1  0
 18 19  2  0
 18 20  1  0
 20 21  2  0
 21 22  1  0
 22 23  2  0
 23 24  1  0
 24 25  2  0
 17 26  1  0
 26 27  2  0
 27 28  1  0
 28 29  1  0
 28 30  2  0
 30 31  1  0
 31 32  2  0
 32 33  1  0
 14  6  1  0
 25 15  1  0
 32 26  1  0
 13  8  1  0
 25 20  1  0
M  END
$$$$
