
     RDKit          3D

 33 37  0  0  0  0  0  0  0  0999 V2000
  213.6357  136.1853  134.8283 C   0  0  0  0  0  0  0  0  0  0  0  0
  212.7705  135.1014  135.1712 O   0  0  0  0  0  0  0  0  0  0  0  0
  211.4143  135.2259  135.3344 C   0  0  0  0  0  0  0  0  0  0  0  0
  210.8898  136.3609  135.2115 O   0  0  0  0  0  0  0  0  0  0  0  0
  210.5530  134.1351  135.6382 N   0  0  0  0  0  0  0  0  0  0  0  0
  209.1365  134.3481  135.6698 C   0  0  0  0  0  0  0  0  0  0  0  0
  208.1810  133.4114  135.8010 N   0  0  0  0  0  0  0  0  0  0  0  0
  206.9510  133.9834  135.7885 C   0  0  0  0  0  0  0  0  0  0  0  0
  205.6823  133.4586  135.8900 C   0  0  0  0  0  0  0  0  0  0  0  0
  204.5614  134.3006  135.8465 C   0  0  0  0  0  0  0  0  0  0  0  0
  204.7867  135.6310  135.7020 C   0  0  0  0  0  0  0  0  0  0  0  0
  206.0781  136.1714  135.5981 C   0  0  0  0  0  0  0  0  0  0  0  0
  207.1817  135.3468  135.6407 C   0  0  0  0  0  0  0  0  0  0  0  0
  208.5260  135.5420  135.5707 N   0  0  0  0  0  0  0  0  0  0  0  0
  203.2673  133.6691  135.9548 C   0  0  0  0  0  0  0  0  0  0  0  0
  202.4441  134.6350  136.7016 O   0  0  0  0  0  0  0  0  0  0  0  0
  202.4808  133.3671  134.8437 N   0  0  0  0  0  0  0  0  0  0  0  0
  201.7625  132.1543  135.1106 C   0  0  0  0  0  0  0  0  0  0  0  0
  200.8320  131.6496  134.4183 O   0  0  0  0  0  0  0  0  0  0  0  0
  202.3163  131.6166  136.3393 C   0  0  0  0  0  0  0  0  0  0  0  0
  202.0836  130.4193  137.0406 C   0  0  0  0  0  0  0  0  0  0  0  0
  202.8210  130.0860  138.1565 C   0  0  0  0  0  0  0  0  0  0  0  0
  203.8067  130.9603  138.5808 C   0  0  0  0  0  0  0  0  0  0  0  0
  204.0728  132.1443  137.9319 C   0  0  0  0  0  0  0  0  0  0  0  0
  203.2962  132.4480  136.7982 C   0  0  0  0  0  0  0  0  0  0  0  0
  202.2696  134.0786  133.5954 C   0  0  0  0  0  0  0  0  0  0  0  0
  203.1848  133.9647  132.5704 C   0  0  0  0  0  0  0  0  0  0  0  0
  203.0181  134.6732  131.3781 C   0  0  0  0  0  0  0  0  0  0  0  0
  204.1775  134.5342  130.0708 Cl  0  0  0  0  0  0  0  0  0  0  0  0
  201.9347  135.5039  131.1961 C   0  0  0  0  0  0  0  0  0  0  0  0
  201.0219  135.6190  132.2176 C   0  0  0  0  0  0  0  0  0  0  0  0
  201.1936  134.9065  133.4130 C   0  0  0  0  0  0  0  0  0  0  0  0
  200.1942  135.1210  134.4764 C   0  0  0  0  0  0  0  0  0  0  0  0
  1  2  1  0
  2  3  1  0
  3  4  2  0
  3  5  1  0
  5  6  1  0
  6  7  2  0
  7  8  1  0
  8  9  2  0
  9 10  1  0
 10 11  2  0
 11 12  1  0
 12 13  2  0
 13 14  1  0
 10 15  1  0
 15 16  1  0
 15 17  1  0
 17 18  1  0
 18 19  2  0
 18 20  1  0
 20 21  2  0
 21 22  1  0
 22 23  2  0
 23 24  1  0
 24 25  2  0
 17 26  1  0
 26 27  2  0
 27 28  1  0
 28 29  1  0
 28 30  2  0
 30 31  1  0
 31 32  2  0
 32 33  1  0
 14  6  1  0
 25 15  1  0
 32 26  1  0
 13  8  1  0
 25 20  1  0
M  END
$$$$
