
     RDKit          3D

 33 37  0  0  0  0  0  0  0  0999 V2000
  118.2023  164.6879  146.1910 C   0  0  0  0  0  0  0  0  0  0  0  0
  119.5676  164.3537  145.9353 O   0  0  0  0  0  0  0  0  0  0  0  0
  120.0947  163.0994  146.1093 C   0  0  0  0  0  0  0  0  0  0  0  0
  119.4398  162.2514  146.7653 O   0  0  0  0  0  0  0  0  0  0  0  0
  121.3538  162.6936  145.5860 N   0  0  0  0  0  0  0  0  0  0  0  0
  121.7993  161.3480  145.7958 C   0  0  0  0  0  0  0  0  0  0  0  0
  122.9186  160.7823  145.3113 N   0  0  0  0  0  0  0  0  0  0  0  0
  123.0118  159.4914  145.7173 C   0  0  0  0  0  0  0  0  0  0  0  0
  123.9534  158.5128  145.4909 C   0  0  0  0  0  0  0  0  0  0  0  0
  123.7953  157.2350  146.0470 C   0  0  0  0  0  0  0  0  0  0  0  0
  122.6901  157.0170  146.8037 C   0  0  0  0  0  0  0  0  0  0  0  0
  121.7270  158.0110  147.0378 C   0  0  0  0  0  0  0  0  0  0  0  0
  121.8793  159.2679  146.4929 C   0  0  0  0  0  0  0  0  0  0  0  0
  121.1557  160.4191  146.5243 N   0  0  0  0  0  0  0  0  0  0  0  0
  124.8258  156.2659  145.7566 C   0  0  0  0  0  0  0  0  0  0  0  0
  125.8901  157.0416  145.0980 O   0  0  0  0  0  0  0  0  0  0  0  0
  125.5062  155.5677  146.7537 N   0  0  0  0  0  0  0  0  0  0  0  0
  125.8050  154.2523  146.2653 C   0  0  0  0  0  0  0  0  0  0  0  0
  126.5489  153.3862  146.8096 O   0  0  0  0  0  0  0  0  0  0  0  0
  125.0815  154.1093  145.0156 C   0  0  0  0  0  0  0  0  0  0  0  0
  124.9131  153.0246  144.1357 C   0  0  0  0  0  0  0  0  0  0  0  0
  124.0816  153.1115  143.0397 C   0  0  0  0  0  0  0  0  0  0  0  0
  123.4068  154.2993  142.8167 C   0  0  0  0  0  0  0  0  0  0  0  0
  123.5380  155.3901  143.6454 C   0  0  0  0  0  0  0  0  0  0  0  0
  124.3979  155.2606  144.7519 C   0  0  0  0  0  0  0  0  0  0  0  0
  125.9587  155.9749  148.0723 C   0  0  0  0  0  0  0  0  0  0  0  0
  125.4293  155.3825  149.1992 C   0  0  0  0  0  0  0  0  0  0  0  0
  125.8237  155.7896  150.4759 C   0  0  0  0  0  0  0  0  0  0  0  0
  125.1548  155.0416  151.9132 Cl  0  0  0  0  0  0  0  0  0  0  0  0
  126.7517  156.7936  150.6414 C   0  0  0  0  0  0  0  0  0  0  0  0
  127.2796  157.3858  149.5188 C   0  0  0  0  0  0  0  0  0  0  0  0
  126.8804  156.9744  148.2390 C   0  0  0  0  0  0  0  0  0  0  0  0
  127.4598  157.6917  147.0878 C   0  0  0  0  0  0  0  0  0  0  0  0
  1  2  1  0
  2  3  1  0
  3  4  2  0
  3  5  1  0
  5  6  1  0
  6  7  2  0
  7  8  1  0
  8  9  2  0
  9 10  1  0
 10 11  2  0
 11 12  1  0
 12 13  2  0
 13 14  1  0
 10 15  1  0
 15 16  1  0
 15 17  1  0
 17 18  1  0
 18 19  2  0
 18 20  1  0
 20 21  2  0
 21 22  1  0
 22 23  2  0
 23 24  1  0
 24 25  2  0
 17 26  1  0
 26 27  2  0
 27 28  1  0
 28 29  1  0
 28 30  2  0
 30 31  1  0
 31 32  2  0
 32 33  1  0
 14  6  1  0
 25 15  1  0
 32 26  1  0
 13  8  1  0
 25 20  1  0
M  END
$$$$
