
     RDKit          3D

 33 37  0  0  0  0  0  0  0  0999 V2000
  163.7148  144.4784  120.2832 C   0  0  0  0  0  0  0  0  0  0  0  0
  164.6995  143.7027  120.9685 O   0  0  0  0  0  0  0  0  0  0  0  0
  165.7549  144.2417  121.6591 C   0  0  0  0  0  0  0  0  0  0  0  0
  166.6809  144.7966  121.0164 O   0  0  0  0  0  0  0  0  0  0  0  0
  165.8677  144.2111  123.0769 N   0  0  0  0  0  0  0  0  0  0  0  0
  166.8881  144.9881  123.7159 C   0  0  0  0  0  0  0  0  0  0  0  0
  167.9838  145.5132  123.1403 N   0  0  0  0  0  0  0  0  0  0  0  0
  168.7240  146.1870  124.0558 C   0  0  0  0  0  0  0  0  0  0  0  0
  169.9075  146.8838  123.9612 C   0  0  0  0  0  0  0  0  0  0  0  0
  170.4609  147.4979  125.0943 C   0  0  0  0  0  0  0  0  0  0  0  0
  169.7843  147.3726  126.2640 C   0  0  0  0  0  0  0  0  0  0  0  0
  168.5773  146.6633  126.3660 C   0  0  0  0  0  0  0  0  0  0  0  0
  168.0307  146.0587  125.2545 C   0  0  0  0  0  0  0  0  0  0  0  0
  166.9124  145.3214  125.0182 N   0  0  0  0  0  0  0  0  0  0  0  0
  171.7065  148.2046  124.9096 C   0  0  0  0  0  0  0  0  0  0  0  0
  171.9296  148.9040  126.1861 O   0  0  0  0  0  0  0  0  0  0  0  0
  172.9176  147.5509  124.6848 N   0  0  0  0  0  0  0  0  0  0  0  0
  173.7139  148.3575  123.8055 C   0  0  0  0  0  0  0  0  0  0  0  0
  174.9294  148.1843  123.5012 O   0  0  0  0  0  0  0  0  0  0  0  0
  172.8456  149.4186  123.3305 C   0  0  0  0  0  0  0  0  0  0  0  0
  173.0323  150.4471  122.3887 C   0  0  0  0  0  0  0  0  0  0  0  0
  172.0014  151.2899  122.0322 C   0  0  0  0  0  0  0  0  0  0  0  0
  170.7638  151.1047  122.6239 C   0  0  0  0  0  0  0  0  0  0  0  0
  170.5293  150.1156  123.5515 C   0  0  0  0  0  0  0  0  0  0  0  0
  171.6086  149.2781  123.8892 C   0  0  0  0  0  0  0  0  0  0  0  0
  173.4510  146.3091  125.2164 C   0  0  0  0  0  0  0  0  0  0  0  0
  174.1966  146.3164  126.3762 C   0  0  0  0  0  0  0  0  0  0  0  0
  174.7508  145.1373  126.8800 C   0  0  0  0  0  0  0  0  0  0  0  0
  175.7002  145.1386  128.3535 Cl  0  0  0  0  0  0  0  0  0  0  0  0
  174.5665  143.9369  126.2305 C   0  0  0  0  0  0  0  0  0  0  0  0
  173.8241  143.9283  125.0735 C   0  0  0  0  0  0  0  0  0  0  0  0
  173.2702  145.1144  124.5710 C   0  0  0  0  0  0  0  0  0  0  0  0
  172.5262  145.0270  123.3004 C   0  0  0  0  0  0  0  0  0  0  0  0
  1  2  1  0
  2  3  1  0
  3  4  2  0
  3  5  1  0
  5  6  1  0
  6  7  2  0
  7  8  1  0
  8  9  2  0
  9 10  1  0
 10 11  2  0
 11 12  1  0
 12 13  2  0
 13 14  1  0
 10 15  1  0
 15 16  1  0
 15 17  1  0
 17 18  1  0
 18 19  2  0
 18 20  1  0
 20 21  2  0
 21 22  1  0
 22 23  2  0
 23 24  1  0
 24 25  2  0
 17 26  1  0
 26 27  2  0
 27 28  1  0
 28 29  1  0
 28 30  2  0
 30 31  1  0
 31 32  2  0
 32 33  1  0
 14  6  1  0
 25 15  1  0
 32 26  1  0
 13  8  1  0
 25 20  1  0
M  END
$$$$
