
     RDKit          3D

 33 37  0  0  0  0  0  0  0  0999 V2000
  188.6653  152.9361  126.0528 C   0  0  0  0  0  0  0  0  0  0  0  0
  189.1005  154.2393  125.6612 O   0  0  0  0  0  0  0  0  0  0  0  0
  189.6319  155.1616  126.5262 C   0  0  0  0  0  0  0  0  0  0  0  0
  189.8960  154.8087  127.7027 O   0  0  0  0  0  0  0  0  0  0  0  0
  189.9064  156.5111  126.1693 N   0  0  0  0  0  0  0  0  0  0  0  0
  190.4425  156.7979  124.8719 C   0  0  0  0  0  0  0  0  0  0  0  0
  191.0265  157.9415  124.4733 N   0  0  0  0  0  0  0  0  0  0  0  0
  191.4118  157.8503  123.1759 C   0  0  0  0  0  0  0  0  0  0  0  0
  192.0397  158.7364  122.3297 C   0  0  0  0  0  0  0  0  0  0  0  0
  192.3253  158.3710  121.0060 C   0  0  0  0  0  0  0  0  0  0  0  0
  191.9587  157.1258  120.6103 C   0  0  0  0  0  0  0  0  0  0  0  0
  191.3185  156.2184  121.4689 C   0  0  0  0  0  0  0  0  0  0  0  0
  191.0365  156.5741  122.7704 C   0  0  0  0  0  0  0  0  0  0  0  0
  190.4463  155.9525  123.8264 N   0  0  0  0  0  0  0  0  0  0  0  0
  192.9809  159.3607  120.1838 C   0  0  0  0  0  0  0  0  0  0  0  0
  192.9132  158.8132  118.8186 O   0  0  0  0  0  0  0  0  0  0  0  0
  192.4939  160.6588  120.0346 N   0  0  0  0  0  0  0  0  0  0  0  0
  193.6094  161.5508  119.9005 C   0  0  0  0  0  0  0  0  0  0  0  0
  193.5746  162.7755  119.5858 O   0  0  0  0  0  0  0  0  0  0  0  0
  194.7938  160.7672  120.1984 C   0  0  0  0  0  0  0  0  0  0  0  0
  196.1531  161.1100  120.3167 C   0  0  0  0  0  0  0  0  0  0  0  0
  197.0953  160.1844  120.7112 C   0  0  0  0  0  0  0  0  0  0  0  0
  196.6760  158.8956  120.9926 C   0  0  0  0  0  0  0  0  0  0  0  0
  195.3593  158.5087  120.8908 C   0  0  0  0  0  0  0  0  0  0  0  0
  194.4295  159.4833  120.4830 C   0  0  0  0  0  0  0  0  0  0  0  0
  191.1377  161.1711  119.9484 C   0  0  0  0  0  0  0  0  0  0  0  0
  190.3691  160.9109  118.8337 C   0  0  0  0  0  0  0  0  0  0  0  0
  189.0771  161.4290  118.7164 C   0  0  0  0  0  0  0  0  0  0  0  0
  188.0942  161.1030  117.3021 Cl  0  0  0  0  0  0  0  0  0  0  0  0
  188.5381  162.2134  119.7119 C   0  0  0  0  0  0  0  0  0  0  0  0
  189.3037  162.4745  120.8234 C   0  0  0  0  0  0  0  0  0  0  0  0
  190.6003  161.9528  120.9367 C   0  0  0  0  0  0  0  0  0  0  0  0
  191.3723  162.3176  122.1394 C   0  0  0  0  0  0  0  0  0  0  0  0
  1  2  1  0
  2  3  1  0
  3  4  2  0
  3  5  1  0
  5  6  1  0
  6  7  2  0
  7  8  1  0
  8  9  2  0
  9 10  1  0
 10 11  2  0
 11 12  1  0
 12 13  2  0
 13 14  1  0
 10 15  1  0
 15 16  1  0
 15 17  1  0
 17 18  1  0
 18 19  2  0
 18 20  1  0
 20 21  2  0
 21 22  1  0
 22 23  2  0
 23 24  1  0
 24 25  2  0
 17 26  1  0
 26 27  2  0
 27 28  1  0
 28 29  1  0
 28 30  2  0
 30 31  1  0
 31 32  2  0
 32 33  1  0
 14  6  1  0
 25 15  1  0
 32 26  1  0
 13  8  1  0
 25 20  1  0
M  END
$$$$
