
     RDKit          3D

 33 37  0  0  0  0  0  0  0  0999 V2000
  192.8565  161.6074  120.4781 C   0  0  0  0  0  0  0  0  0  0  0  0
  192.5574  160.8112  121.6259 O   0  0  0  0  0  0  0  0  0  0  0  0
  191.9417  161.2929  122.7530 C   0  0  0  0  0  0  0  0  0  0  0  0
  191.8335  162.5357  122.9015 O   0  0  0  0  0  0  0  0  0  0  0  0
  191.4107  160.4615  123.7780 N   0  0  0  0  0  0  0  0  0  0  0  0
  191.3993  160.9359  125.1300 C   0  0  0  0  0  0  0  0  0  0  0  0
  191.3996  160.1899  126.2485 N   0  0  0  0  0  0  0  0  0  0  0  0
  191.3865  160.9838  127.3483 C   0  0  0  0  0  0  0  0  0  0  0  0
  191.3819  160.7026  128.6960 C   0  0  0  0  0  0  0  0  0  0  0  0
  191.3681  161.7426  129.6369 C   0  0  0  0  0  0  0  0  0  0  0  0
  191.3593  163.0134  129.1610 C   0  0  0  0  0  0  0  0  0  0  0  0
  191.3639  163.3058  127.7881 C   0  0  0  0  0  0  0  0  0  0  0  0
  191.3777  162.2862  126.8607 C   0  0  0  0  0  0  0  0  0  0  0  0
  191.3859  162.2279  125.5019 N   0  0  0  0  0  0  0  0  0  0  0  0
  191.3593  161.3613  131.0296 C   0  0  0  0  0  0  0  0  0  0  0  0
  191.4834  159.8941  131.0138 O   0  0  0  0  0  0  0  0  0  0  0  0
  192.3510  161.7585  131.9259 N   0  0  0  0  0  0  0  0  0  0  0  0
  191.7492  161.9531  133.2136 C   0  0  0  0  0  0  0  0  0  0  0  0
  192.3435  162.1541  134.3120 O   0  0  0  0  0  0  0  0  0  0  0  0
  190.3151  161.8735  133.0076 C   0  0  0  0  0  0  0  0  0  0  0  0
  189.2204  162.0723  133.8688 C   0  0  0  0  0  0  0  0  0  0  0  0
  187.9238  162.0329  133.4027 C   0  0  0  0  0  0  0  0  0  0  0  0
  187.7143  161.7913  132.0559 C   0  0  0  0  0  0  0  0  0  0  0  0
  188.7496  161.5886  131.1723 C   0  0  0  0  0  0  0  0  0  0  0  0
  190.0579  161.6350  131.6889 C   0  0  0  0  0  0  0  0  0  0  0  0
  193.7833  161.9299  131.7584 C   0  0  0  0  0  0  0  0  0  0  0  0
  194.2835  163.1035  131.2353 C   0  0  0  0  0  0  0  0  0  0  0  0
  195.6552  163.2700  131.0300 C   0  0  0  0  0  0  0  0  0  0  0  0
  196.2985  164.7588  130.3649 Cl  0  0  0  0  0  0  0  0  0  0  0  0
  196.5432  162.2656  131.3452 C   0  0  0  0  0  0  0  0  0  0  0  0
  196.0458  161.0946  131.8659 C   0  0  0  0  0  0  0  0  0  0  0  0
  194.6680  160.9315  132.0697 C   0  0  0  0  0  0  0  0  0  0  0  0
  194.2119  159.6285  132.5890 C   0  0  0  0  0  0  0  0  0  0  0  0
  1  2  1  0
  2  3  1  0
  3  4  2  0
  3  5  1  0
  5  6  1  0
  6  7  2  0
  7  8  1  0
  8  9  2  0
  9 10  1  0
 10 11  2  0
 11 12  1  0
 12 13  2  0
 13 14  1  0
 10 15  1  0
 15 16  1  0
 15 17  1  0
 17 18  1  0
 18 19  2  0
 18 20  1  0
 20 21  2  0
 21 22  1  0
 22 23  2  0
 23 24  1  0
 24 25  2  0
 17 26  1  0
 26 27  2  0
 27 28  1  0
 28 29  1  0
 28 30  2  0
 30 31  1  0
 31 32  2  0
 32 33  1  0
 14  6  1  0
 25 15  1  0
 32 26  1  0
 13  8  1  0
 25 20  1  0
M  END
$$$$
