
     RDKit          3D

 33 37  0  0  0  0  0  0  0  0999 V2000
  193.6246  156.3822  114.9979 C   0  0  0  0  0  0  0  0  0  0  0  0
  193.8817  156.1320  116.3808 O   0  0  0  0  0  0  0  0  0  0  0  0
  193.1679  156.6966  117.4070 C   0  0  0  0  0  0  0  0  0  0  0  0
  192.2518  157.5114  117.1328 O   0  0  0  0  0  0  0  0  0  0  0  0
  193.4036  156.4131  118.7810 N   0  0  0  0  0  0  0  0  0  0  0  0
  192.7102  157.1688  119.7816 C   0  0  0  0  0  0  0  0  0  0  0  0
  192.9263  157.1429  121.1083 N   0  0  0  0  0  0  0  0  0  0  0  0
  192.0790  157.9905  121.7437 C   0  0  0  0  0  0  0  0  0  0  0  0
  191.9112  158.3129  123.0716 C   0  0  0  0  0  0  0  0  0  0  0  0
  190.9363  159.2447  123.4570 C   0  0  0  0  0  0  0  0  0  0  0  0
  190.1828  159.8005  122.4748 C   0  0  0  0  0  0  0  0  0  0  0  0
  190.3497  159.4755  121.1194 C   0  0  0  0  0  0  0  0  0  0  0  0
  191.3068  158.5603  120.7372 C   0  0  0  0  0  0  0  0  0  0  0  0
  191.7136  158.0405  119.5480 N   0  0  0  0  0  0  0  0  0  0  0  0
  190.8226  159.5223  124.8695 C   0  0  0  0  0  0  0  0  0  0  0  0
  191.9426  158.7896  125.4834 O   0  0  0  0  0  0  0  0  0  0  0  0
  190.9500  160.8066  125.3977 N   0  0  0  0  0  0  0  0  0  0  0  0
  190.0699  160.9247  126.5244 C   0  0  0  0  0  0  0  0  0  0  0  0
  190.0206  161.8740  127.3589 O   0  0  0  0  0  0  0  0  0  0  0  0
  189.2416  159.7333  126.5191 C   0  0  0  0  0  0  0  0  0  0  0  0
  188.1509  159.3326  127.3123 C   0  0  0  0  0  0  0  0  0  0  0  0
  187.4548  158.1736  127.0432 C   0  0  0  0  0  0  0  0  0  0  0  0
  187.8523  157.4010  125.9656 C   0  0  0  0  0  0  0  0  0  0  0  0
  188.9130  157.7470  125.1601 C   0  0  0  0  0  0  0  0  0  0  0  0
  189.5981  158.9366  125.4702 C   0  0  0  0  0  0  0  0  0  0  0  0
  191.8135  161.9146  125.0292 C   0  0  0  0  0  0  0  0  0  0  0  0
  191.4312  162.7885  124.0336 C   0  0  0  0  0  0  0  0  0  0  0  0
  192.2670  163.8359  123.6388 C   0  0  0  0  0  0  0  0  0  0  0  0
  191.7882  164.9506  122.3736 Cl  0  0  0  0  0  0  0  0  0  0  0  0
  193.4947  164.0221  124.2344 C   0  0  0  0  0  0  0  0  0  0  0  0
  193.8776  163.1510  125.2265 C   0  0  0  0  0  0  0  0  0  0  0  0
  193.0357  162.1006  125.6192 C   0  0  0  0  0  0  0  0  0  0  0  0
  193.5402  161.1833  126.6583 C   0  0  0  0  0  0  0  0  0  0  0  0
  1  2  1  0
  2  3  1  0
  3  4  2  0
  3  5  1  0
  5  6  1  0
  6  7  2  0
  7  8  1  0
  8  9  2  0
  9 10  1  0
 10 11  2  0
 11 12  1  0
 12 13  2  0
 13 14  1  0
 10 15  1  0
 15 16  1  0
 15 17  1  0
 17 18  1  0
 18 19  2  0
 18 20  1  0
 20 21  2  0
 21 22  1  0
 22 23  2  0
 23 24  1  0
 24 25  2  0
 17 26  1  0
 26 27  2  0
 27 28  1  0
 28 29  1  0
 28 30  2  0
 30 31  1  0
 31 32  2  0
 32 33  1  0
 14  6  1  0
 25 15  1  0
 32 26  1  0
 13  8  1  0
 25 20  1  0
M  END
$$$$
