
     RDKit          3D

 33 37  0  0  0  0  0  0  0  0999 V2000
  192.6522  155.6203  112.9282 C   0  0  0  0  0  0  0  0  0  0  0  0
  193.7275  156.3835  113.4782 O   0  0  0  0  0  0  0  0  0  0  0  0
  193.7244  156.9088  114.7452 C   0  0  0  0  0  0  0  0  0  0  0  0
  194.5214  156.4431  115.5974 O   0  0  0  0  0  0  0  0  0  0  0  0
  192.8633  157.9626  115.1599 N   0  0  0  0  0  0  0  0  0  0  0  0
  192.8634  158.3682  116.5341 C   0  0  0  0  0  0  0  0  0  0  0  0
  192.0763  159.2984  117.1024 N   0  0  0  0  0  0  0  0  0  0  0  0
  192.3587  159.4157  118.4240 C   0  0  0  0  0  0  0  0  0  0  0  0
  191.8372  160.2136  119.4173 C   0  0  0  0  0  0  0  0  0  0  0  0
  192.3279  160.1252  120.7282 C   0  0  0  0  0  0  0  0  0  0  0  0
  193.3223  159.2320  120.9625 C   0  0  0  0  0  0  0  0  0  0  0  0
  193.8576  158.4160  119.9535 C   0  0  0  0  0  0  0  0  0  0  0  0
  193.3776  158.5002  118.6643 C   0  0  0  0  0  0  0  0  0  0  0  0
  193.6667  157.8736  117.4922 N   0  0  0  0  0  0  0  0  0  0  0  0
  191.7295  161.0007  121.7084 C   0  0  0  0  0  0  0  0  0  0  0  0
  190.6195  161.6538  120.9946 O   0  0  0  0  0  0  0  0  0  0  0  0
  191.1282  160.5273  122.8742 N   0  0  0  0  0  0  0  0  0  0  0  0
  191.3568  161.4791  123.9230 C   0  0  0  0  0  0  0  0  0  0  0  0
  190.8349  161.4861  125.0752 O   0  0  0  0  0  0  0  0  0  0  0  0
  192.3107  162.4389  123.3992 C   0  0  0  0  0  0  0  0  0  0  0  0
  192.9752  163.5322  123.9845 C   0  0  0  0  0  0  0  0  0  0  0  0
  193.9281  164.2479  123.2918 C   0  0  0  0  0  0  0  0  0  0  0  0
  194.2238  163.8678  121.9941 C   0  0  0  0  0  0  0  0  0  0  0  0
  193.6018  162.8078  121.3750 C   0  0  0  0  0  0  0  0  0  0  0  0
  192.6338  162.1048  122.1162 C   0  0  0  0  0  0  0  0  0  0  0  0
  190.3302  159.3410  123.1290 C   0  0  0  0  0  0  0  0  0  0  0  0
  190.9404  158.1655  123.5122 C   0  0  0  0  0  0  0  0  0  0  0  0
  190.1925  157.0046  123.7225 C   0  0  0  0  0  0  0  0  0  0  0  0
  190.9612  155.5063  124.2092 Cl  0  0  0  0  0  0  0  0  0  0  0  0
  188.8259  157.0049  123.5523 C   0  0  0  0  0  0  0  0  0  0  0  0
  188.2162  158.1759  123.1694 C   0  0  0  0  0  0  0  0  0  0  0  0
  188.9710  159.3388  122.9587 C   0  0  0  0  0  0  0  0  0  0  0  0
  188.2467  160.5409  122.5048 C   0  0  0  0  0  0  0  0  0  0  0  0
  1  2  1  0
  2  3  1  0
  3  4  2  0
  3  5  1  0
  5  6  1  0
  6  7  2  0
  7  8  1  0
  8  9  2  0
  9 10  1  0
 10 11  2  0
 11 12  1  0
 12 13  2  0
 13 14  1  0
 10 15  1  0
 15 16  1  0
 15 17  1  0
 17 18  1  0
 18 19  2  0
 18 20  1  0
 20 21  2  0
 21 22  1  0
 22 23  2  0
 23 24  1  0
 24 25  2  0
 17 26  1  0
 26 27  2  0
 27 28  1  0
 28 29  1  0
 28 30  2  0
 30 31  1  0
 31 32  2  0
 32 33  1  0
 14  6  1  0
 25 15  1  0
 32 26  1  0
 13  8  1  0
 25 20  1  0
M  END
$$$$
