
     RDKit          3D

 33 37  0  0  0  0  0  0  0  0999 V2000
  113.2647  160.9823  147.0193 C   0  0  0  0  0  0  0  0  0  0  0  0
  114.1344  162.0374  147.4330 O   0  0  0  0  0  0  0  0  0  0  0  0
  115.0698  162.6230  146.6184 C   0  0  0  0  0  0  0  0  0  0  0  0
  115.0532  162.3620  145.3896 O   0  0  0  0  0  0  0  0  0  0  0  0
  116.0711  163.5196  147.0846 N   0  0  0  0  0  0  0  0  0  0  0  0
  116.6577  164.4529  146.1692 C   0  0  0  0  0  0  0  0  0  0  0  0
  117.1669  164.1824  144.9547 N   0  0  0  0  0  0  0  0  0  0  0  0
  117.6360  165.3151  144.3740 C   0  0  0  0  0  0  0  0  0  0  0  0
  118.2362  165.5549  143.1584 C   0  0  0  0  0  0  0  0  0  0  0  0
  118.6296  166.8544  142.8064 C   0  0  0  0  0  0  0  0  0  0  0  0
  118.3935  167.8423  143.7063 C   0  0  0  0  0  0  0  0  0  0  0  0
  117.7818  167.6033  144.9470 C   0  0  0  0  0  0  0  0  0  0  0  0
  117.3939  166.3276  145.2960 C   0  0  0  0  0  0  0  0  0  0  0  0
  116.7951  165.7729  146.3840 N   0  0  0  0  0  0  0  0  0  0  0  0
  119.2562  167.0184  141.5158 C   0  0  0  0  0  0  0  0  0  0  0  0
  119.9881  165.7598  141.2956 O   0  0  0  0  0  0  0  0  0  0  0  0
  118.5260  167.1764  140.3383 N   0  0  0  0  0  0  0  0  0  0  0  0
  119.2526  168.0539  139.4664 C   0  0  0  0  0  0  0  0  0  0  0  0
  118.9987  168.3079  138.2536 O   0  0  0  0  0  0  0  0  0  0  0  0
  120.3437  168.5966  140.2542 C   0  0  0  0  0  0  0  0  0  0  0  0
  121.3243  169.5662  139.9754 C   0  0  0  0  0  0  0  0  0  0  0  0
  122.2113  169.9890  140.9423 C   0  0  0  0  0  0  0  0  0  0  0  0
  122.1195  169.4362  142.2080 C   0  0  0  0  0  0  0  0  0  0  0  0
  121.1804  168.4839  142.5318 C   0  0  0  0  0  0  0  0  0  0  0  0
  120.2952  168.0784  141.5156 C   0  0  0  0  0  0  0  0  0  0  0  0
  117.2760  166.5830  139.8972 C   0  0  0  0  0  0  0  0  0  0  0  0
  117.2872  165.4553  139.1038 C   0  0  0  0  0  0  0  0  0  0  0  0
  116.0958  164.8947  138.6375 C   0  0  0  0  0  0  0  0  0  0  0  0
  116.1019  163.4616  137.6281 Cl  0  0  0  0  0  0  0  0  0  0  0  0
  114.8791  165.4544  138.9587 C   0  0  0  0  0  0  0  0  0  0  0  0
  114.8665  166.5793  139.7488 C   0  0  0  0  0  0  0  0  0  0  0  0
  116.0650  167.1391  140.2141 C   0  0  0  0  0  0  0  0  0  0  0  0
  115.9671  168.3719  141.0181 C   0  0  0  0  0  0  0  0  0  0  0  0
  1  2  1  0
  2  3  1  0
  3  4  2  0
  3  5  1  0
  5  6  1  0
  6  7  2  0
  7  8  1  0
  8  9  2  0
  9 10  1  0
 10 11  2  0
 11 12  1  0
 12 13  2  0
 13 14  1  0
 10 15  1  0
 15 16  1  0
 15 17  1  0
 17 18  1  0
 18 19  2  0
 18 20  1  0
 20 21  2  0
 21 22  1  0
 22 23  2  0
 23 24  1  0
 24 25  2  0
 17 26  1  0
 26 27  2  0
 27 28  1  0
 28 29  1  0
 28 30  2  0
 30 31  1  0
 31 32  2  0
 32 33  1  0
 14  6  1  0
 25 15  1  0
 32 26  1  0
 13  8  1  0
 25 20  1  0
M  END
$$$$
