
     RDKit          3D

 33 37  0  0  0  0  0  0  0  0999 V2000
  167.5341  151.3862  135.1746 C   0  0  0  0  0  0  0  0  0  0  0  0
  167.3832  151.8112  133.8190 O   0  0  0  0  0  0  0  0  0  0  0  0
  167.5003  153.1143  133.4072 C   0  0  0  0  0  0  0  0  0  0  0  0
  167.7773  153.9970  134.2572 O   0  0  0  0  0  0  0  0  0  0  0  0
  167.3253  153.5342  132.0593 N   0  0  0  0  0  0  0  0  0  0  0  0
  167.1326  152.5485  131.0374 C   0  0  0  0  0  0  0  0  0  0  0  0
  166.6260  152.7471  129.8079 N   0  0  0  0  0  0  0  0  0  0  0  0
  166.5932  151.5817  129.1144 C   0  0  0  0  0  0  0  0  0  0  0  0
  166.1715  151.2709  127.8412 C   0  0  0  0  0  0  0  0  0  0  0  0
  166.2538  149.9527  127.3694 C   0  0  0  0  0  0  0  0  0  0  0  0
  166.7595  149.0188  128.2143 C   0  0  0  0  0  0  0  0  0  0  0  0
  167.1909  149.3302  129.5133 C   0  0  0  0  0  0  0  0  0  0  0  0
  167.1116  150.6247  129.9800 C   0  0  0  0  0  0  0  0  0  0  0  0
  167.4332  151.2427  131.1482 N   0  0  0  0  0  0  0  0  0  0  0  0
  165.7859  149.7113  126.0248 C   0  0  0  0  0  0  0  0  0  0  0  0
  165.8504  151.0273  125.3673 O   0  0  0  0  0  0  0  0  0  0  0  0
  166.4545  148.8730  125.1333 N   0  0  0  0  0  0  0  0  0  0  0  0
  165.4814  148.2186  124.3069 C   0  0  0  0  0  0  0  0  0  0  0  0
  165.7016  147.5135  123.2801 O   0  0  0  0  0  0  0  0  0  0  0  0
  164.1861  148.5264  124.8839 C   0  0  0  0  0  0  0  0  0  0  0  0
  162.8826  148.0989  124.5715 C   0  0  0  0  0  0  0  0  0  0  0  0
  161.8020  148.4656  125.3448 C   0  0  0  0  0  0  0  0  0  0  0  0
  162.0240  149.2717  126.4480 C   0  0  0  0  0  0  0  0  0  0  0  0
  163.2783  149.7183  126.7959 C   0  0  0  0  0  0  0  0  0  0  0  0
  164.3540  149.3229  125.9791 C   0  0  0  0  0  0  0  0  0  0  0  0
  167.8710  148.6399  124.9137 C   0  0  0  0  0  0  0  0  0  0  0  0
  168.6458  149.6065  124.3083 C   0  0  0  0  0  0  0  0  0  0  0  0
  170.0010  149.3834  124.0532 C   0  0  0  0  0  0  0  0  0  0  0  0
  170.9923  150.6071  123.2834 Cl  0  0  0  0  0  0  0  0  0  0  0  0
  170.5978  148.1917  124.4001 C   0  0  0  0  0  0  0  0  0  0  0  0
  169.8263  147.2267  125.0029 C   0  0  0  0  0  0  0  0  0  0  0  0
  168.4661  147.4546  125.2565 C   0  0  0  0  0  0  0  0  0  0  0  0
  167.6985  146.3515  125.8644 C   0  0  0  0  0  0  0  0  0  0  0  0
  1  2  1  0
  2  3  1  0
  3  4  2  0
  3  5  1  0
  5  6  1  0
  6  7  2  0
  7  8  1  0
  8  9  2  0
  9 10  1  0
 10 11  2  0
 11 12  1  0
 12 13  2  0
 13 14  1  0
 10 15  1  0
 15 16  1  0
 15 17  1  0
 17 18  1  0
 18 19  2  0
 18 20  1  0
 20 21  2  0
 21 22  1  0
 22 23  2  0
 23 24  1  0
 24 25  2  0
 17 26  1  0
 26 27  2  0
 27 28  1  0
 28 29  1  0
 28 30  2  0
 30 31  1  0
 31 32  2  0
 32 33  1  0
 14  6  1  0
 25 15  1  0
 32 26  1  0
 13  8  1  0
 25 20  1  0
M  END
$$$$
