
     RDKit          3D

 33 37  0  0  0  0  0  0  0  0999 V2000
  116.5653  160.6201  148.3368 C   0  0  0  0  0  0  0  0  0  0  0  0
  116.1488  161.9859  148.2890 O   0  0  0  0  0  0  0  0  0  0  0  0
  115.7112  162.6139  147.1508 C   0  0  0  0  0  0  0  0  0  0  0  0
  114.5856  162.3086  146.6837 O   0  0  0  0  0  0  0  0  0  0  0  0
  116.4626  163.6028  146.4571 N   0  0  0  0  0  0  0  0  0  0  0  0
  115.8478  164.3254  145.3834 C   0  0  0  0  0  0  0  0  0  0  0  0
  116.4688  164.9254  144.3529 N   0  0  0  0  0  0  0  0  0  0  0  0
  115.5638  165.5128  143.5307 C   0  0  0  0  0  0  0  0  0  0  0  0
  115.6991  166.2343  142.3659 C   0  0  0  0  0  0  0  0  0  0  0  0
  114.5669  166.7358  141.7074 C   0  0  0  0  0  0  0  0  0  0  0  0
  113.3568  166.4792  142.2652 C   0  0  0  0  0  0  0  0  0  0  0  0
  113.2131  165.7442  143.4525 C   0  0  0  0  0  0  0  0  0  0  0  0
  114.3236  165.2498  144.1022 C   0  0  0  0  0  0  0  0  0  0  0  0
  114.5262  164.5224  145.2335 N   0  0  0  0  0  0  0  0  0  0  0  0
  114.7971  167.4857  140.4949 C   0  0  0  0  0  0  0  0  0  0  0  0
  113.4586  167.6606  139.9067 O   0  0  0  0  0  0  0  0  0  0  0  0
  115.3196  168.7786  140.4963 N   0  0  0  0  0  0  0  0  0  0  0  0
  116.1381  168.9400  139.3292 C   0  0  0  0  0  0  0  0  0  0  0  0
  116.6471  170.0138  138.8958 O   0  0  0  0  0  0  0  0  0  0  0  0
  116.2683  167.6207  138.7392 C   0  0  0  0  0  0  0  0  0  0  0  0
  117.0145  167.1389  137.6481 C   0  0  0  0  0  0  0  0  0  0  0  0
  117.0470  165.7963  137.3375 C   0  0  0  0  0  0  0  0  0  0  0  0
  116.3238  164.9191  138.1273 C   0  0  0  0  0  0  0  0  0  0  0  0
  115.5768  165.3391  139.2040 C   0  0  0  0  0  0  0  0  0  0  0  0
  115.5688  166.7179  139.4859 C   0  0  0  0  0  0  0  0  0  0  0  0
  115.1191  169.8938  141.4048 C   0  0  0  0  0  0  0  0  0  0  0  0
  115.8920  170.0087  142.5408 C   0  0  0  0  0  0  0  0  0  0  0  0
  115.6859  171.0526  143.4459 C   0  0  0  0  0  0  0  0  0  0  0  0
  116.6639  171.2049  144.8926 Cl  0  0  0  0  0  0  0  0  0  0  0  0
  114.7049  171.9940  143.2262 C   0  0  0  0  0  0  0  0  0  0  0  0
  113.9330  171.8801  142.0944 C   0  0  0  0  0  0  0  0  0  0  0  0
  114.1429  170.8303  141.1889 C   0  0  0  0  0  0  0  0  0  0  0  0
  113.2421  170.7534  140.0235 C   0  0  0  0  0  0  0  0  0  0  0  0
  1  2  1  0
  2  3  1  0
  3  4  2  0
  3  5  1  0
  5  6  1  0
  6  7  2  0
  7  8  1  0
  8  9  2  0
  9 10  1  0
 10 11  2  0
 11 12  1  0
 12 13  2  0
 13 14  1  0
 10 15  1  0
 15 16  1  0
 15 17  1  0
 17 18  1  0
 18 19  2  0
 18 20  1  0
 20 21  2  0
 21 22  1  0
 22 23  2  0
 23 24  1  0
 24 25  2  0
 17 26  1  0
 26 27  2  0
 27 28  1  0
 28 29  1  0
 28 30  2  0
 30 31  1  0
 31 32  2  0
 32 33  1  0
 14  6  1  0
 25 15  1  0
 32 26  1  0
 13  8  1  0
 25 20  1  0
M  END
$$$$
