
     RDKit          3D

 33 37  0  0  0  0  0  0  0  0999 V2000
  132.0474  142.5927  125.3940 C   0  0  0  0  0  0  0  0  0  0  0  0
  130.9438  143.2355  126.0342 O   0  0  0  0  0  0  0  0  0  0  0  0
  130.6807  143.1484  127.3775 C   0  0  0  0  0  0  0  0  0  0  0  0
  131.5705  142.6995  128.1425 O   0  0  0  0  0  0  0  0  0  0  0  0
  129.4463  143.5400  127.9664 N   0  0  0  0  0  0  0  0  0  0  0  0
  129.4165  143.9128  129.3495 C   0  0  0  0  0  0  0  0  0  0  0  0
  128.3256  144.1226  130.1068 N   0  0  0  0  0  0  0  0  0  0  0  0
  128.6834  144.4617  131.3706 C   0  0  0  0  0  0  0  0  0  0  0  0
  127.9474  144.7676  132.4932 C   0  0  0  0  0  0  0  0  0  0  0  0
  128.5914  145.0886  133.6971 C   0  0  0  0  0  0  0  0  0  0  0  0
  129.9484  145.0825  133.6988 C   0  0  0  0  0  0  0  0  0  0  0  0
  130.7037  144.7713  132.5572 C   0  0  0  0  0  0  0  0  0  0  0  0
  130.0740  144.4553  131.3725 C   0  0  0  0  0  0  0  0  0  0  0  0
  130.4960  144.1165  130.1247 N   0  0  0  0  0  0  0  0  0  0  0  0
  127.7459  145.4016  134.8251 C   0  0  0  0  0  0  0  0  0  0  0  0
  126.3755  145.1756  134.3360 O   0  0  0  0  0  0  0  0  0  0  0  0
  127.7846  144.6815  136.0186 N   0  0  0  0  0  0  0  0  0  0  0  0
  127.5264  145.5841  137.1033 C   0  0  0  0  0  0  0  0  0  0  0  0
  127.3180  145.2833  138.3141 O   0  0  0  0  0  0  0  0  0  0  0  0
  127.5513  146.9190  136.5352 C   0  0  0  0  0  0  0  0  0  0  0  0
  127.4559  148.1981  137.1134 C   0  0  0  0  0  0  0  0  0  0  0  0
  127.6071  149.3409  136.3575 C   0  0  0  0  0  0  0  0  0  0  0  0
  127.8573  149.2068  135.0028 C   0  0  0  0  0  0  0  0  0  0  0  0
  127.9580  147.9797  134.3882 C   0  0  0  0  0  0  0  0  0  0  0  0
  127.7955  146.8382  135.1951 C   0  0  0  0  0  0  0  0  0  0  0  0
  127.9767  143.2658  136.2795 C   0  0  0  0  0  0  0  0  0  0  0  0
  129.2424  142.7702  136.5108 C   0  0  0  0  0  0  0  0  0  0  0  0
  129.4503  141.4053  136.7238 C   0  0  0  0  0  0  0  0  0  0  0  0
  131.0564  140.7677  137.0180 Cl  0  0  0  0  0  0  0  0  0  0  0  0
  128.3957  140.5198  136.7082 C   0  0  0  0  0  0  0  0  0  0  0  0
  127.1333  141.0124  136.4767 C   0  0  0  0  0  0  0  0  0  0  0  0
  126.9293  142.3831  136.2627 C   0  0  0  0  0  0  0  0  0  0  0  0
  125.5513  142.8240  135.9760 C   0  0  0  0  0  0  0  0  0  0  0  0
  1  2  1  0
  2  3  1  0
  3  4  2  0
  3  5  1  0
  5  6  1  0
  6  7  2  0
  7  8  1  0
  8  9  2  0
  9 10  1  0
 10 11  2  0
 11 12  1  0
 12 13  2  0
 13 14  1  0
 10 15  1  0
 15 16  1  0
 15 17  1  0
 17 18  1  0
 18 19  2  0
 18 20  1  0
 20 21  2  0
 21 22  1  0
 22 23  2  0
 23 24  1  0
 24 25  2  0
 17 26  1  0
 26 27  2  0
 27 28  1  0
 28 29  1  0
 28 30  2  0
 30 31  1  0
 31 32  2  0
 32 33  1  0
 14  6  1  0
 25 15  1  0
 32 26  1  0
 13  8  1  0
 25 20  1  0
M  END
$$$$
