
     RDKit          3D

 46 53  0  0  0  0  0  0  0  0999 V2000
  201.0363  136.4609  131.2052 C   0  0  0  0  0  0  0  0  0  0  0  0
  201.2271  137.7717  131.9631 C   0  0  2  0  0  0  0  0  0  0  0  0
  200.0532  138.6547  131.4680 C   0  0  0  0  0  0  0  0  0  0  0  0
  200.7521  139.4816  130.4176 C   0  0  1  0  0  0  0  0  0  0  0  0
  199.9677  140.6685  129.9344 C   0  0  2  0  0  0  0  0  0  0  0  0
  199.1635  140.1837  128.7521 C   0  0  0  0  0  0  0  0  0  0  0  0
  198.5109  141.2905  127.9499 C   0  0  0  0  0  0  0  0  0  0  0  0
  199.4901  142.3978  127.7205 C   0  0  0  0  0  0  0  0  0  0  0  0
  199.6417  142.8622  126.5146 C   0  0  0  0  0  0  0  0  0  0  0  0
  200.5792  143.9381  126.1963 C   0  0  0  0  0  0  0  0  0  0  0  0
  200.6747  144.3379  125.0186 O   0  0  0  0  0  0  0  0  0  0  0  0
  201.3462  144.4736  127.2974 C   0  0  0  0  0  0  0  0  0  0  0  0
  201.1938  144.0082  128.5171 C   0  0  0  0  0  0  0  0  0  0  0  0
  200.2606  142.9432  128.8573 C   0  0  1  0  0  0  0  0  0  0  0  0
  199.2111  143.5400  129.8088 C   0  0  0  0  0  0  0  0  0  0  0  0
  200.8842  141.7436  129.5044 C   0  0  0  0  0  0  0  0  0  0  0  0
  202.1796  141.6925  129.6628 C   0  0  0  0  0  0  0  0  0  0  0  0
  202.9183  140.5690  130.2863 C   0  0  0  0  0  0  0  0  0  0  0  0
  201.9938  139.8662  131.2154 C   0  0  1  0  0  0  0  0  0  0  0  0
  201.6454  140.6289  132.4541 C   0  0  0  0  0  0  0  0  0  0  0  0
  202.4857  138.4376  131.5340 C   0  0  1  0  0  0  0  0  0  0  0  0
  203.6317  138.4460  132.4185 C   0  0  0  0  0  0  0  0  0  0  0  0
  203.6722  139.4584  133.1994 O   0  0  0  0  0  0  0  0  0  0  0  0
  204.7559  137.5291  132.5841 C   0  0  0  0  0  0  0  0  0  0  0  0
  204.6547  136.3336  133.2834 N   0  0  0  0  0  0  0  0  0  0  0  0
  205.1679  136.2251  134.5877 C   0  0  0  0  0  0  0  0  0  0  0  0
  205.0951  134.7974  135.1309 C   0  0  0  0  0  0  0  0  0  0  0  0
  205.7840  133.8882  134.2448 N   0  0  0  0  0  0  0  0  0  0  0  0
  205.6453  134.1704  132.8131 C   0  0  0  0  0  0  0  0  0  0  0  0
  204.5218  135.1223  132.5363 C   0  0  0  0  0  0  0  0  0  0  0  0
  206.5544  132.7817  134.6543 C   0  0  0  0  0  0  0  0  0  0  0  0
  206.7721  131.7436  133.7760 C   0  0  0  0  0  0  0  0  0  0  0  0
  207.5193  130.6330  134.1533 C   0  0  0  0  0  0  0  0  0  0  0  0
  208.0110  130.6198  135.3944 N   0  0  0  0  0  0  0  0  0  0  0  0
  207.8229  131.6150  136.2898 C   0  0  0  0  0  0  0  0  0  0  0  0
  207.0925  132.6675  135.8743 N   0  0  0  0  0  0  0  0  0  0  0  0
  208.3661  131.5408  137.5984 N   0  0  0  0  0  0  0  0  0  0  0  0
  209.2676  130.5061  138.0506 C   0  0  0  0  0  0  0  0  0  0  0  0
  209.3407  130.6231  139.5453 C   0  0  0  0  0  0  0  0  0  0  0  0
  208.4444  131.7728  139.9395 C   0  0  0  0  0  0  0  0  0  0  0  0
  208.0879  132.4863  138.6500 C   0  0  0  0  0  0  0  0  0  0  0  0
  207.7538  129.5560  133.2576 N   0  0  0  0  0  0  0  0  0  0  0  0
  207.2521  129.3570  131.9227 C   0  0  0  0  0  0  0  0  0  0  0  0
  208.5327  128.9478  131.1822 C   0  0  0  0  0  0  0  0  0  0  0  0
  209.3971  128.3025  132.2586 C   0  0  0  0  0  0  0  0  0  0  0  0
  208.5851  128.4049  133.5451 C   0  0  0  0  0  0  0  0  0  0  0  0
  2  1  1  6
  2  3  1  0
  4  3  1  1
  4  5  1  0
  5  6  1  6
  6  7  1  0
  7  8  1  0
  8  9  2  0
  9 10  1  0
 10 11  2  0
 10 12  1  0
 12 13  2  0
 13 14  1  0
 14 15  1  1
 14 16  1  0
 16 17  2  0
 17 18  1  0
 18 19  1  0
 19 20  1  1
 19 21  1  0
 21 22  1  1
 22 23  2  0
 22 24  1  0
 24 25  1  0
 25 26  1  0
 26 27  1  0
 27 28  1  0
 28 29  1  0
 29 30  1  0
 28 31  1  0
 31 32  2  0
 32 33  1  0
 33 34  2  0
 34 35  1  0
 35 36  2  0
 35 37  1  0
 37 38  1  0
 38 39  1  0
 39 40  1  0
 40 41  1  0
 33 42  1  0
 42 43  1  0
 43 44  1  0
 44 45  1  0
 45 46  1  0
 21  2  1  0
 30 25  1  0
 36 31  1  0
 41 37  1  0
 46 42  1  0
 19  4  1  0
 16  5  1  0
 14  8  1  0
M  END
$$$$
