
     RDKit          3D

 46 53  0  0  0  0  0  0  0  0999 V2000
  117.2442  145.0678  157.8957 C   0  0  0  0  0  0  0  0  0  0  0  0
  116.7712  146.0271  156.8071 C   0  0  2  0  0  0  0  0  0  0  0  0
  117.3770  145.4345  155.5091 C   0  0  0  0  0  0  0  0  0  0  0  0
  118.6018  146.3014  155.3539 C   0  0  1  0  0  0  0  0  0  0  0  0
  119.2742  146.1968  154.0144 C   0  0  2  0  0  0  0  0  0  0  0  0
  120.2984  145.0954  154.1467 C   0  0  0  0  0  0  0  0  0  0  0  0
  121.2733  145.0125  152.9904 C   0  0  0  0  0  0  0  0  0  0  0  0
  121.7629  146.3815  152.6388 C   0  0  0  0  0  0  0  0  0  0  0  0
  123.0427  146.5766  152.5084 C   0  0  0  0  0  0  0  0  0  0  0  0
  123.6112  147.8811  152.1728 C   0  0  0  0  0  0  0  0  0  0  0  0
  124.8479  147.9993  152.0613 O   0  0  0  0  0  0  0  0  0  0  0  0
  122.6749  148.9662  151.9899 C   0  0  0  0  0  0  0  0  0  0  0  0
  121.3814  148.7721  152.1187 C   0  0  0  0  0  0  0  0  0  0  0  0
  120.7939  147.4799  152.4445 C   0  0  1  0  0  0  0  0  0  0  0  0
  119.9323  147.0526  151.2453 C   0  0  0  0  0  0  0  0  0  0  0  0
  119.9510  147.4670  153.6838 C   0  0  0  0  0  0  0  0  0  0  0  0
  119.8455  148.5492  154.4075 C   0  0  0  0  0  0  0  0  0  0  0  0
  119.0461  148.6693  155.6497 C   0  0  0  0  0  0  0  0  0  0  0  0
  117.9544  147.6609  155.5968 C   0  0  1  0  0  0  0  0  0  0  0  0
  116.8770  147.9503  154.6004 C   0  0  0  0  0  0  0  0  0  0  0  0
  117.3815  147.3693  157.0009 C   0  0  1  0  0  0  0  0  0  0  0  0
  116.5701  148.4634  157.4907 C   0  0  0  0  0  0  0  0  0  0  0  0
  116.4788  149.4431  156.6732 O   0  0  0  0  0  0  0  0  0  0  0  0
  115.8455  148.6704  158.7413 C   0  0  0  0  0  0  0  0  0  0  0  0
  116.2821  148.1602  159.9569 N   0  0  0  0  0  0  0  0  0  0  0  0
  115.4176  147.3979  160.7617 C   0  0  0  0  0  0  0  0  0  0  0  0
  116.0300  147.0542  162.1203 C   0  0  0  0  0  0  0  0  0  0  0  0
  116.4247  148.2596  162.8116 N   0  0  0  0  0  0  0  0  0  0  0  0
  116.9806  149.3217  161.9681 C   0  0  0  0  0  0  0  0  0  0  0  0
  117.3704  148.8144  160.6132 C   0  0  0  0  0  0  0  0  0  0  0  0
  116.3153  148.4729  164.2001 C   0  0  0  0  0  0  0  0  0  0  0  0
  116.6161  149.7111  164.7226 C   0  0  0  0  0  0  0  0  0  0  0  0
  116.5280  149.9504  166.0897 C   0  0  0  0  0  0  0  0  0  0  0  0
  116.1423  148.9342  166.8649 N   0  0  0  0  0  0  0  0  0  0  0  0
  115.8376  147.7031  166.3967 C   0  0  0  0  0  0  0  0  0  0  0  0
  115.9388  147.5241  165.0656 N   0  0  0  0  0  0  0  0  0  0  0  0
  115.4392  146.6600  167.2720 N   0  0  0  0  0  0  0  0  0  0  0  0
  115.3000  146.8037  168.7029 C   0  0  0  0  0  0  0  0  0  0  0  0
  115.1760  145.4168  169.2639 C   0  0  0  0  0  0  0  0  0  0  0  0
  115.2464  144.4633  168.0950 C   0  0  0  0  0  0  0  0  0  0  0  0
  115.1237  145.3186  166.8493 C   0  0  0  0  0  0  0  0  0  0  0  0
  116.8329  151.2227  166.6424 N   0  0  0  0  0  0  0  0  0  0  0  0
  117.2836  152.4186  165.9791 C   0  0  0  0  0  0  0  0  0  0  0  0
  116.3594  153.4718  166.6055 C   0  0  0  0  0  0  0  0  0  0  0  0
  116.0218  152.9038  167.9787 C   0  0  0  0  0  0  0  0  0  0  0  0
  116.7387  151.5598  168.0482 C   0  0  0  0  0  0  0  0  0  0  0  0
  2  1  1  1
  2  3  1  0
  4  3  1  6
  4  5  1  0
  5  6  1  1
  6  7  1  0
  7  8  1  0
  8  9  2  0
  9 10  1  0
 10 11  2  0
 10 12  1  0
 12 13  2  0
 13 14  1  0
 14 15  1  6
 14 16  1  0
 16 17  2  0
 17 18  1  0
 18 19  1  0
 19 20  1  6
 19 21  1  0
 21 22  1  6
 22 23  2  0
 22 24  1  0
 24 25  1  0
 25 26  1  0
 26 27  1  0
 27 28  1  0
 28 29  1  0
 29 30  1  0
 28 31  1  0
 31 32  2  0
 32 33  1  0
 33 34  2  0
 34 35  1  0
 35 36  2  0
 35 37  1  0
 37 38  1  0
 38 39  1  0
 39 40  1  0
 40 41  1  0
 33 42  1  0
 42 43  1  0
 43 44  1  0
 44 45  1  0
 45 46  1  0
 21  2  1  0
 30 25  1  0
 36 31  1  0
 41 37  1  0
 46 42  1  0
 19  4  1  0
 16  5  1  0
 14  8  1  0
M  END
$$$$
