
     RDKit          3D

 46 53  0  0  0  0  0  0  0  0999 V2000
  119.0305  171.3649  148.1193 C   0  0  0  0  0  0  0  0  0  0  0  0
  118.9312  169.9624  148.7125 C   0  0  2  0  0  0  0  0  0  0  0  0
  120.3093  169.7537  149.3909 C   0  0  0  0  0  0  0  0  0  0  0  0
  121.0227  168.9539  148.3292 C   0  0  1  0  0  0  0  0  0  0  0  0
  122.3036  168.3147  148.7852 C   0  0  2  0  0  0  0  0  0  0  0  0
  123.3951  169.3181  148.4999 C   0  0  0  0  0  0  0  0  0  0  0  0
  124.7983  168.7636  148.6343 C   0  0  0  0  0  0  0  0  0  0  0  0
  124.8844  167.4296  147.9632 C   0  0  0  0  0  0  0  0  0  0  0  0
  125.8609  167.2061  147.1329 C   0  0  0  0  0  0  0  0  0  0  0  0
  126.0208  165.9355  146.4275 C   0  0  0  0  0  0  0  0  0  0  0  0
  126.9811  165.7865  145.6454 O   0  0  0  0  0  0  0  0  0  0  0  0
  125.0296  164.9189  146.6948 C   0  0  0  0  0  0  0  0  0  0  0  0
  124.0432  165.1405  147.5347 C   0  0  0  0  0  0  0  0  0  0  0  0
  123.8698  166.3953  148.2533 C   0  0  1  0  0  0  0  0  0  0  0  0
  124.0203  166.0895  149.7523 C   0  0  0  0  0  0  0  0  0  0  0  0
  122.5551  167.0765  148.0209 C   0  0  0  0  0  0  0  0  0  0  0  0
  121.7006  166.5654  147.1755 C   0  0  0  0  0  0  0  0  0  0  0  0
  120.3709  167.1373  146.8570 C   0  0  0  0  0  0  0  0  0  0  0  0
  119.9222  167.9431  148.0236 C   0  0  1  0  0  0  0  0  0  0  0  0
  119.5469  167.1463  149.2327 C   0  0  0  0  0  0  0  0  0  0  0  0
  118.8201  168.9501  147.6287 C   0  0  1  0  0  0  0  0  0  0  0  0
  117.5525  168.2950  147.3848 C   0  0  0  0  0  0  0  0  0  0  0  0
  117.3712  167.2444  148.0919 O   0  0  0  0  0  0  0  0  0  0  0  0
  116.4461  168.5942  146.4802 C   0  0  0  0  0  0  0  0  0  0  0  0
  116.4919  168.3204  145.1196 N   0  0  0  0  0  0  0  0  0  0  0  0
  115.3748  168.5714  144.3040 C   0  0  0  0  0  0  0  0  0  0  0  0
  115.5673  168.0681  142.8727 C   0  0  0  0  0  0  0  0  0  0  0  0
  115.8786  166.6576  142.8749 N   0  0  0  0  0  0  0  0  0  0  0  0
  116.7390  166.1994  143.9695 C   0  0  0  0  0  0  0  0  0  0  0  0
  117.4243  167.3401  144.6581 C   0  0  0  0  0  0  0  0  0  0  0  0
  115.4248  165.7238  141.9222 C   0  0  0  0  0  0  0  0  0  0  0  0
  114.2005  165.9091  141.3196 C   0  0  0  0  0  0  0  0  0  0  0  0
  113.7200  165.0001  140.3832 C   0  0  0  0  0  0  0  0  0  0  0  0
  114.4929  163.9495  140.0982 N   0  0  0  0  0  0  0  0  0  0  0  0
  115.7001  163.7270  140.6643 C   0  0  0  0  0  0  0  0  0  0  0  0
  116.1192  164.6371  141.5643 N   0  0  0  0  0  0  0  0  0  0  0  0
  116.4739  162.5871  140.3251 N   0  0  0  0  0  0  0  0  0  0  0  0
  117.8478  162.3849  140.7242 C   0  0  0  0  0  0  0  0  0  0  0  0
  118.3679  161.2377  139.9076 C   0  0  0  0  0  0  0  0  0  0  0  0
  117.2344  160.7820  139.0199 C   0  0  0  0  0  0  0  0  0  0  0  0
  115.9922  161.4820  139.5351 C   0  0  0  0  0  0  0  0  0  0  0  0
  112.4603  165.1793  139.7521 N   0  0  0  0  0  0  0  0  0  0  0  0
  111.4492  166.1730  140.0045 C   0  0  0  0  0  0  0  0  0  0  0  0
  111.1142  166.6250  138.5766 C   0  0  0  0  0  0  0  0  0  0  0  0
  111.4247  165.4064  137.7159 C   0  0  0  0  0  0  0  0  0  0  0  0
  111.9425  164.3484  138.6842 C   0  0  0  0  0  0  0  0  0  0  0  0
  2  1  1  6
  2  3  1  0
  4  3  1  1
  4  5  1  0
  5  6  1  6
  6  7  1  0
  7  8  1  0
  8  9  2  0
  9 10  1  0
 10 11  2  0
 10 12  1  0
 12 13  2  0
 13 14  1  0
 14 15  1  1
 14 16  1  0
 16 17  2  0
 17 18  1  0
 18 19  1  0
 19 20  1  1
 19 21  1  0
 21 22  1  1
 22 23  2  0
 22 24  1  0
 24 25  1  0
 25 26  1  0
 26 27  1  0
 27 28  1  0
 28 29  1  0
 29 30  1  0
 28 31  1  0
 31 32  2  0
 32 33  1  0
 33 34  2  0
 34 35  1  0
 35 36  2  0
 35 37  1  0
 37 38  1  0
 38 39  1  0
 39 40  1  0
 40 41  1  0
 33 42  1  0
 42 43  1  0
 43 44  1  0
 44 45  1  0
 45 46  1  0
 21  2  1  0
 30 25  1  0
 36 31  1  0
 41 37  1  0
 46 42  1  0
 19  4  1  0
 16  5  1  0
 14  8  1  0
M  END
$$$$
