
     RDKit          3D

 46 53  0  0  0  0  0  0  0  0999 V2000
  181.9764  170.6301  142.2148 C   0  0  0  0  0  0  0  0  0  0  0  0
  183.4866  170.5741  142.4267 C   0  0  2  0  0  0  0  0  0  0  0  0
  183.6394  170.5668  143.9693 C   0  0  0  0  0  0  0  0  0  0  0  0
  183.9362  172.0235  144.2254 C   0  0  1  0  0  0  0  0  0  0  0  0
  184.4418  172.3232  145.6082 C   0  0  2  0  0  0  0  0  0  0  0  0
  183.2196  172.6168  146.4445 C   0  0  0  0  0  0  0  0  0  0  0  0
  183.5261  173.2088  147.8047 C   0  0  0  0  0  0  0  0  0  0  0  0
  184.5545  174.2867  147.6702 C   0  0  0  0  0  0  0  0  0  0  0  0
  184.3350  175.4381  148.2348 C   0  0  0  0  0  0  0  0  0  0  0  0
  185.2805  176.5503  148.1511 C   0  0  0  0  0  0  0  0  0  0  0  0
  185.0090  177.6281  148.7172 O   0  0  0  0  0  0  0  0  0  0  0  0
  186.4915  176.3136  147.3994 C   0  0  0  0  0  0  0  0  0  0  0  0
  186.7173  175.1508  146.8297 C   0  0  0  0  0  0  0  0  0  0  0  0
  185.7932  174.0279  146.9073 C   0  0  1  0  0  0  0  0  0  0  0  0
  186.5077  172.8979  147.6662 C   0  0  0  0  0  0  0  0  0  0  0  0
  185.3224  173.5083  145.5826 C   0  0  0  0  0  0  0  0  0  0  0  0
  185.6977  174.1036  144.4823 C   0  0  0  0  0  0  0  0  0  0  0  0
  185.3057  173.6911  143.1137 C   0  0  0  0  0  0  0  0  0  0  0  0
  184.9875  172.2386  143.1415 C   0  0  1  0  0  0  0  0  0  0  0  0
  186.1680  171.3383  143.3245 C   0  0  0  0  0  0  0  0  0  0  0  0
  184.1243  171.8227  141.9306 C   0  0  1  0  0  0  0  0  0  0  0  0
  184.8916  171.7988  140.7033 C   0  0  0  0  0  0  0  0  0  0  0  0
  186.0615  171.2990  140.8370 O   0  0  0  0  0  0  0  0  0  0  0  0
  184.5934  172.2450  139.3454 C   0  0  0  0  0  0  0  0  0  0  0  0
  185.1694  173.3759  138.7818 N   0  0  0  0  0  0  0  0  0  0  0  0
  184.5099  174.6160  138.8399 C   0  0  0  0  0  0  0  0  0  0  0  0
  185.2288  175.7021  138.0383 C   0  0  0  0  0  0  0  0  0  0  0  0
  185.3921  175.2859  136.6647 N   0  0  0  0  0  0  0  0  0  0  0  0
  185.6867  173.8643  136.4632 C   0  0  0  0  0  0  0  0  0  0  0  0
  186.1231  173.1975  137.7321 C   0  0  0  0  0  0  0  0  0  0  0  0
  185.2917  176.1315  135.5421 C   0  0  0  0  0  0  0  0  0  0  0  0
  186.0971  175.9059  134.4479 C   0  0  0  0  0  0  0  0  0  0  0  0
  186.0293  176.7287  133.3288 C   0  0  0  0  0  0  0  0  0  0  0  0
  185.1558  177.7377  133.3637 N   0  0  0  0  0  0  0  0  0  0  0  0
  184.3462  177.9972  134.4148 C   0  0  0  0  0  0  0  0  0  0  0  0
  184.4511  177.1706  135.4730 N   0  0  0  0  0  0  0  0  0  0  0  0
  183.4415  179.0900  134.3955 N   0  0  0  0  0  0  0  0  0  0  0  0
  183.3789  180.0793  133.3443 C   0  0  0  0  0  0  0  0  0  0  0  0
  182.5285  181.2029  133.8621 C   0  0  0  0  0  0  0  0  0  0  0  0
  182.0986  180.8200  135.2581 C   0  0  0  0  0  0  0  0  0  0  0  0
  182.4677  179.3587  135.4235 C   0  0  0  0  0  0  0  0  0  0  0  0
  186.8520  176.5069  132.1926 N   0  0  0  0  0  0  0  0  0  0  0  0
  186.8709  177.2040  130.9328 C   0  0  0  0  0  0  0  0  0  0  0  0
  188.3766  177.4326  130.7425 C   0  0  0  0  0  0  0  0  0  0  0  0
  189.0281  176.2803  131.4977 C   0  0  0  0  0  0  0  0  0  0  0  0
  187.8735  175.4841  132.0957 C   0  0  0  0  0  0  0  0  0  0  0  0
  2  1  1  1
  2  3  1  0
  4  3  1  1
  4  5  1  0
  5  6  1  1
  6  7  1  0
  7  8  1  0
  8  9  2  0
  9 10  1  0
 10 11  2  0
 10 12  1  0
 12 13  2  0
 13 14  1  0
 14 15  1  1
 14 16  1  0
 16 17  2  0
 17 18  1  0
 18 19  1  0
 19 20  1  1
 19 21  1  0
 21 22  1  6
 22 23  2  0
 22 24  1  0
 24 25  1  0
 25 26  1  0
 26 27  1  0
 27 28  1  0
 28 29  1  0
 29 30  1  0
 28 31  1  0
 31 32  2  0
 32 33  1  0
 33 34  2  0
 34 35  1  0
 35 36  2  0
 35 37  1  0
 37 38  1  0
 38 39  1  0
 39 40  1  0
 40 41  1  0
 33 42  1  0
 42 43  1  0
 43 44  1  0
 44 45  1  0
 45 46  1  0
 21  2  1  0
 30 25  1  0
 36 31  1  0
 41 37  1  0
 46 42  1  0
 19  4  1  0
 16  5  1  0
 14  8  1  0
M  END
$$$$
