
     RDKit          3D

 46 53  0  0  0  0  0  0  0  0999 V2000
  163.2314  150.5590  126.6661 C   0  0  0  0  0  0  0  0  0  0  0  0
  162.4167  149.6793  125.7220 C   0  0  2  0  0  0  0  0  0  0  0  0
  161.1174  149.3939  126.5178 C   0  0  0  0  0  0  0  0  0  0  0  0
  161.4288  148.0276  127.0763 C   0  0  1  0  0  0  0  0  0  0  0  0
  160.2469  147.3098  127.6637 C   0  0  2  0  0  0  0  0  0  0  0  0
  160.2090  147.6936  129.1235 C   0  0  0  0  0  0  0  0  0  0  0  0
  159.2550  146.8647  129.9584 C   0  0  0  0  0  0  0  0  0  0  0  0
  159.4120  145.4157  129.6221 C   0  0  0  0  0  0  0  0  0  0  0  0
  159.5552  144.5582  130.5902 C   0  0  0  0  0  0  0  0  0  0  0  0
  159.7209  143.1246  130.3555 C   0  0  0  0  0  0  0  0  0  0  0  0
  159.8520  142.3563  131.3294 O   0  0  0  0  0  0  0  0  0  0  0  0
  159.7204  142.6913  128.9772 C   0  0  0  0  0  0  0  0  0  0  0  0
  159.5737  143.5546  127.9970 C   0  0  0  0  0  0  0  0  0  0  0  0
  159.3996  144.9849  128.2088 C   0  0  1  0  0  0  0  0  0  0  0  0
  158.0043  145.3594  127.6835 C   0  0  0  0  0  0  0  0  0  0  0  0
  160.4246  145.8491  127.5388 C   0  0  0  0  0  0  0  0  0  0  0  0
  161.4109  145.2966  126.8846 C   0  0  0  0  0  0  0  0  0  0  0  0
  162.4854  146.0347  126.1795 C   0  0  0  0  0  0  0  0  0  0  0  0
  161.9577  147.3735  125.8040 C   0  0  1  0  0  0  0  0  0  0  0  0
  160.9318  147.3637  124.7154 C   0  0  0  0  0  0  0  0  0  0  0  0
  163.0983  148.3736  125.5159 C   0  0  1  0  0  0  0  0  0  0  0  0
  163.7537  148.0965  124.2553 C   0  0  0  0  0  0  0  0  0  0  0  0
  163.2868  147.0731  123.6461 O   0  0  0  0  0  0  0  0  0  0  0  0
  164.8517  148.7516  123.5501 C   0  0  0  0  0  0  0  0  0  0  0  0
  166.0252  149.1415  124.1820 N   0  0  0  0  0  0  0  0  0  0  0  0
  166.7045  148.2538  125.0346 C   0  0  0  0  0  0  0  0  0  0  0  0
  167.8857  148.9127  125.7483 C   0  0  0  0  0  0  0  0  0  0  0  0
  167.4422  150.0734  126.4849 N   0  0  0  0  0  0  0  0  0  0  0  0
  166.3951  150.8717  125.8408 C   0  0  0  0  0  0  0  0  0  0  0  0
  166.2509  150.5379  124.3873 C   0  0  0  0  0  0  0  0  0  0  0  0
  167.9365  150.4761  127.7414 C   0  0  0  0  0  0  0  0  0  0  0  0
  167.5619  151.6960  128.2592 C   0  0  0  0  0  0  0  0  0  0  0  0
  168.0406  152.1266  129.4919 C   0  0  0  0  0  0  0  0  0  0  0  0
  168.8723  151.3107  130.1438 N   0  0  0  0  0  0  0  0  0  0  0  0
  169.2672  150.1059  129.6748 C   0  0  0  0  0  0  0  0  0  0  0  0
  168.7747  149.7361  128.4770 N   0  0  0  0  0  0  0  0  0  0  0  0
  170.1593  149.2850  130.4118 N   0  0  0  0  0  0  0  0  0  0  0  0
  170.6202  147.9860  129.9784 C   0  0  0  0  0  0  0  0  0  0  0  0
  171.2749  147.3439  131.1669 C   0  0  0  0  0  0  0  0  0  0  0  0
  171.1759  148.3289  132.3073 C   0  0  0  0  0  0  0  0  0  0  0  0
  170.7212  149.6376  131.6914 C   0  0  0  0  0  0  0  0  0  0  0  0
  167.6613  153.3811  130.0392 N   0  0  0  0  0  0  0  0  0  0  0  0
  166.7122  154.3421  129.5401 C   0  0  0  0  0  0  0  0  0  0  0  0
  165.9199  154.6661  130.8140 C   0  0  0  0  0  0  0  0  0  0  0  0
  166.9120  154.4200  131.9442 C   0  0  0  0  0  0  0  0  0  0  0  0
  168.1914  153.9456  131.2636 C   0  0  0  0  0  0  0  0  0  0  0  0
  2  1  1  1
  2  3  1  0
  4  3  1  6
  4  5  1  0
  5  6  1  1
  6  7  1  0
  7  8  1  0
  8  9  2  0
  9 10  1  0
 10 11  2  0
 10 12  1  0
 12 13  2  0
 13 14  1  0
 14 15  1  6
 14 16  1  0
 16 17  2  0
 17 18  1  0
 18 19  1  0
 19 20  1  6
 19 21  1  0
 21 22  1  6
 22 23  2  0
 22 24  1  0
 24 25  1  0
 25 26  1  0
 26 27  1  0
 27 28  1  0
 28 29  1  0
 29 30  1  0
 28 31  1  0
 31 32  2  0
 32 33  1  0
 33 34  2  0
 34 35  1  0
 35 36  2  0
 35 37  1  0
 37 38  1  0
 38 39  1  0
 39 40  1  0
 40 41  1  0
 33 42  1  0
 42 43  1  0
 43 44  1  0
 44 45  1  0
 45 46  1  0
 21  2  1  0
 30 25  1  0
 36 31  1  0
 41 37  1  0
 46 42  1  0
 19  4  1  0
 16  5  1  0
 14  8  1  0
M  END
$$$$
