
     RDKit          3D

 46 53  0  0  0  0  0  0  0  0999 V2000
  194.4550  135.2899  128.5437 C   0  0  0  0  0  0  0  0  0  0  0  0
  195.8310  135.1819  129.1947 C   0  0  2  0  0  0  0  0  0  0  0  0
  196.7886  134.9745  127.9934 C   0  0  0  0  0  0  0  0  0  0  0  0
  196.9594  133.4762  128.0305 C   0  0  1  0  0  0  0  0  0  0  0  0
  198.0790  132.9547  127.1749 C   0  0  2  0  0  0  0  0  0  0  0  0
  197.4711  132.6656  125.8234 C   0  0  0  0  0  0  0  0  0  0  0  0
  198.3705  131.8764  124.8946 C   0  0  0  0  0  0  0  0  0  0  0  0
  198.9940  130.7373  125.6369 C   0  0  0  0  0  0  0  0  0  0  0  0
  198.9469  129.5465  125.1147 C   0  0  0  0  0  0  0  0  0  0  0  0
  199.5238  128.3744  125.7711 C   0  0  0  0  0  0  0  0  0  0  0  0
  199.4451  127.2608  125.2147 O   0  0  0  0  0  0  0  0  0  0  0  0
  200.1596  128.5972  127.0493 C   0  0  0  0  0  0  0  0  0  0  0  0
  200.2110  129.7992  127.5785 C   0  0  0  0  0  0  0  0  0  0  0  0
  199.6500  130.9809  126.9383 C   0  0  1  0  0  0  0  0  0  0  0  0
  200.8169  131.9336  126.6317 C   0  0  0  0  0  0  0  0  0  0  0  0
  198.6227  131.7087  127.7516 C   0  0  0  0  0  0  0  0  0  0  0  0
  198.2553  131.2306  128.9102 C   0  0  0  0  0  0  0  0  0  0  0  0
  197.2542  131.8513  129.8097 C   0  0  0  0  0  0  0  0  0  0  0  0
  197.2177  133.3105  129.5246 C   0  0  1  0  0  0  0  0  0  0  0  0
  198.4281  134.0695  129.9678 C   0  0  0  0  0  0  0  0  0  0  0  0
  195.9106  133.9564  130.0334 C   0  0  1  0  0  0  0  0  0  0  0  0
  195.8911  134.0710  131.4763 C   0  0  0  0  0  0  0  0  0  0  0  0
  197.0548  134.0900  132.0072 O   0  0  0  0  0  0  0  0  0  0  0  0
  194.8009  134.1572  132.4437 C   0  0  0  0  0  0  0  0  0  0  0  0
  193.5971  134.7913  132.1657 N   0  0  0  0  0  0  0  0  0  0  0  0
  192.7346  134.2824  131.1791 C   0  0  0  0  0  0  0  0  0  0  0  0
  191.5375  135.1972  130.9163 C   0  0  0  0  0  0  0  0  0  0  0  0
  191.9883  136.5205  130.5528 N   0  0  0  0  0  0  0  0  0  0  0  0
  193.1788  137.0018  131.2595 C   0  0  0  0  0  0  0  0  0  0  0  0
  193.4771  136.1812  132.4772 C   0  0  0  0  0  0  0  0  0  0  0  0
  191.3760  137.3529  129.5948 C   0  0  0  0  0  0  0  0  0  0  0  0
  190.3779  136.8453  128.7931 C   0  0  0  0  0  0  0  0  0  0  0  0
  189.7612  137.6382  127.8313 C   0  0  0  0  0  0  0  0  0  0  0  0
  190.1775  138.9020  127.7220 N   0  0  0  0  0  0  0  0  0  0  0  0
  191.1528  139.4425  128.4863 C   0  0  0  0  0  0  0  0  0  0  0  0
  191.7172  138.6326  129.4024 N   0  0  0  0  0  0  0  0  0  0  0  0
  191.5569  140.7923  128.3187 N   0  0  0  0  0  0  0  0  0  0  0  0
  191.0862  141.6602  127.2639 C   0  0  0  0  0  0  0  0  0  0  0  0
  191.9824  142.8646  127.2668 C   0  0  0  0  0  0  0  0  0  0  0  0
  192.9910  142.6579  128.3714 C   0  0  0  0  0  0  0  0  0  0  0  0
  192.4923  141.4744  129.1772 C   0  0  0  0  0  0  0  0  0  0  0  0
  188.7291  137.1291  126.9990 N   0  0  0  0  0  0  0  0  0  0  0  0
  187.9723  137.8002  125.9742 C   0  0  0  0  0  0  0  0  0  0  0  0
  188.0364  136.7721  124.8364 C   0  0  0  0  0  0  0  0  0  0  0  0
  188.1859  135.4337  125.5497 C   0  0  0  0  0  0  0  0  0  0  0  0
  188.2288  135.7700  127.0363 C   0  0  0  0  0  0  0  0  0  0  0  0
  2  1  1  6
  2  3  1  0
  4  3  1  1
  4  5  1  0
  5  6  1  6
  6  7  1  0
  7  8  1  0
  8  9  2  0
  9 10  1  0
 10 11  2  0
 10 12  1  0
 12 13  2  0
 13 14  1  0
 14 15  1  6
 14 16  1  0
 16 17  2  0
 17 18  1  0
 18 19  1  0
 19 20  1  1
 19 21  1  0
 21 22  1  1
 22 23  2  0
 22 24  1  0
 24 25  1  0
 25 26  1  0
 26 27  1  0
 27 28  1  0
 28 29  1  0
 29 30  1  0
 28 31  1  0
 31 32  2  0
 32 33  1  0
 33 34  2  0
 34 35  1  0
 35 36  2  0
 35 37  1  0
 37 38  1  0
 38 39  1  0
 39 40  1  0
 40 41  1  0
 33 42  1  0
 42 43  1  0
 43 44  1  0
 44 45  1  0
 45 46  1  0
 21  2  1  0
 30 25  1  0
 36 31  1  0
 41 37  1  0
 46 42  1  0
 19  4  1  0
 16  5  1  0
 14  8  1  0
M  END
$$$$
