
     RDKit          3D

 46 53  0  0  0  0  0  0  0  0999 V2000
  203.5455  133.1875  133.4957 C   0  0  0  0  0  0  0  0  0  0  0  0
  203.5479  134.7008  133.6929 C   0  0  2  0  0  0  0  0  0  0  0  0
  202.2950  135.1733  132.9121 C   0  0  0  0  0  0  0  0  0  0  0  0
  202.9271  135.6193  131.6171 C   0  0  1  0  0  0  0  0  0  0  0  0
  202.0233  136.4239  130.7265 C   0  0  2  0  0  0  0  0  0  0  0  0
  201.3283  135.4285  129.8289 C   0  0  0  0  0  0  0  0  0  0  0  0
  200.5767  136.0549  128.6726 C   0  0  0  0  0  0  0  0  0  0  0  0
  201.4224  137.1054  128.0257 C   0  0  0  0  0  0  0  0  0  0  0  0
  201.5614  137.0912  126.7321 C   0  0  0  0  0  0  0  0  0  0  0  0
  202.3729  138.0740  126.0156 C   0  0  0  0  0  0  0  0  0  0  0  0
  202.4630  138.0042  124.7735 O   0  0  0  0  0  0  0  0  0  0  0  0
  203.0279  139.0803  126.8192 C   0  0  0  0  0  0  0  0  0  0  0  0
  202.8877  139.0989  128.1259 C   0  0  0  0  0  0  0  0  0  0  0  0
  202.0784  138.1349  128.8584 C   0  0  1  0  0  0  0  0  0  0  0  0
  200.9296  138.9113  129.5222 C   0  0  0  0  0  0  0  0  0  0  0  0
  202.8181  137.3608  129.9073 C   0  0  0  0  0  0  0  0  0  0  0  0
  204.1035  137.5376  130.0576 C   0  0  0  0  0  0  0  0  0  0  0  0
  204.9491  136.8388  131.0542 C   0  0  0  0  0  0  0  0  0  0  0  0
  204.0826  136.4319  132.1924 C   0  0  1  0  0  0  0  0  0  0  0  0
  203.5985  137.5580  133.0497 C   0  0  0  0  0  0  0  0  0  0  0  0
  204.7317  135.3063  133.0268 C   0  0  1  0  0  0  0  0  0  0  0  0
  205.8345  135.7951  133.8271 C   0  0  0  0  0  0  0  0  0  0  0  0
  205.8738  137.0699  133.9261 O   0  0  0  0  0  0  0  0  0  0  0  0
  206.9169  135.1159  134.5336 C   0  0  0  0  0  0  0  0  0  0  0  0
  206.7214  134.4221  135.7206 N   0  0  0  0  0  0  0  0  0  0  0  0
  206.4397  133.0450  135.7032 C   0  0  0  0  0  0  0  0  0  0  0  0
  206.1107  132.4949  137.0917 C   0  0  0  0  0  0  0  0  0  0  0  0
  205.0068  133.2244  137.6712 N   0  0  0  0  0  0  0  0  0  0  0  0
  204.9806  134.6631  137.3919 C   0  0  0  0  0  0  0  0  0  0  0  0
  206.2959  135.1563  136.8708 C   0  0  0  0  0  0  0  0  0  0  0  0
  203.9873  132.6609  138.4640 C   0  0  0  0  0  0  0  0  0  0  0  0
  204.0735  131.3395  138.8425 C   0  0  0  0  0  0  0  0  0  0  0  0
  203.0786  130.7513  139.6159 C   0  0  0  0  0  0  0  0  0  0  0  0
  202.0459  131.5192  139.9711 N   0  0  0  0  0  0  0  0  0  0  0  0
  201.9191  132.8192  139.6229 C   0  0  0  0  0  0  0  0  0  0  0  0
  202.9097  133.3405  138.8740 N   0  0  0  0  0  0  0  0  0  0  0  0
  200.7935  133.5832  140.0259 N   0  0  0  0  0  0  0  0  0  0  0  0
  200.4773  134.8995  139.5210 C   0  0  0  0  0  0  0  0  0  0  0  0
  199.4155  135.4613  140.4212 C   0  0  0  0  0  0  0  0  0  0  0  0
  199.1281  134.4118  141.4682 C   0  0  0  0  0  0  0  0  0  0  0  0
  199.8187  133.1480  140.9943 C   0  0  0  0  0  0  0  0  0  0  0  0
  203.1553  129.3905  140.0155 N   0  0  0  0  0  0  0  0  0  0  0  0
  202.2575  128.6355  140.8505 C   0  0  0  0  0  0  0  0  0  0  0  0
  202.0934  127.3518  140.0252 C   0  0  0  0  0  0  0  0  0  0  0  0
  203.3948  127.2433  139.2398 C   0  0  0  0  0  0  0  0  0  0  0  0
  204.2080  128.4721  139.6321 C   0  0  0  0  0  0  0  0  0  0  0  0
  2  1  1  6
  2  3  1  0
  4  3  1  1
  4  5  1  0
  5  6  1  6
  6  7  1  0
  7  8  1  0
  8  9  2  0
  9 10  1  0
 10 11  2  0
 10 12  1  0
 12 13  2  0
 13 14  1  0
 14 15  1  1
 14 16  1  0
 16 17  2  0
 17 18  1  0
 18 19  1  0
 19 20  1  1
 19 21  1  0
 21 22  1  1
 22 23  2  0
 22 24  1  0
 24 25  1  0
 25 26  1  0
 26 27  1  0
 27 28  1  0
 28 29  1  0
 29 30  1  0
 28 31  1  0
 31 32  2  0
 32 33  1  0
 33 34  2  0
 34 35  1  0
 35 36  2  0
 35 37  1  0
 37 38  1  0
 38 39  1  0
 39 40  1  0
 40 41  1  0
 33 42  1  0
 42 43  1  0
 43 44  1  0
 44 45  1  0
 45 46  1  0
 21  2  1  0
 30 25  1  0
 36 31  1  0
 41 37  1  0
 46 42  1  0
 19  4  1  0
 16  5  1  0
 14  8  1  0
M  END
$$$$
