
     RDKit          3D

 46 53  0  0  0  0  0  0  0  0999 V2000
  171.2473  165.1461  112.0235 C   0  0  0  0  0  0  0  0  0  0  0  0
  171.5690  163.7492  111.5000 C   0  0  2  0  0  0  0  0  0  0  0  0
  171.7533  162.9089  112.7895 C   0  0  0  0  0  0  0  0  0  0  0  0
  173.2572  162.9092  112.9081 C   0  0  1  0  0  0  0  0  0  0  0  0
  173.8051  161.9202  113.8975 C   0  0  2  0  0  0  0  0  0  0  0  0
  173.8865  162.6510  115.2162 C   0  0  0  0  0  0  0  0  0  0  0  0
  174.6679  161.9161  116.2856 C   0  0  0  0  0  0  0  0  0  0  0  0
  175.9378  161.3768  115.7075 C   0  0  0  0  0  0  0  0  0  0  0  0
  177.0565  161.5973  116.3342 C   0  0  0  0  0  0  0  0  0  0  0  0
  178.3452  161.1142  115.8406 C   0  0  0  0  0  0  0  0  0  0  0  0
  179.3806  161.3595  116.4914 O   0  0  0  0  0  0  0  0  0  0  0  0
  178.3247  160.3685  114.6032 C   0  0  0  0  0  0  0  0  0  0  0  0
  177.1960  160.1421  113.9688 C   0  0  0  0  0  0  0  0  0  0  0  0
  175.9013  160.6071  114.4467 C   0  0  1  0  0  0  0  0  0  0  0  0
  175.0531  159.3630  114.7560 C   0  0  0  0  0  0  0  0  0  0  0  0
  175.1549  161.4841  113.4873 C   0  0  0  0  0  0  0  0  0  0  0  0
  175.7075  161.8215  112.3530 C   0  0  0  0  0  0  0  0  0  0  0  0
  175.0787  162.6787  111.3202 C   0  0  0  0  0  0  0  0  0  0  0  0
  173.6026  162.5672  111.4623 C   0  0  1  0  0  0  0  0  0  0  0  0
  173.0276  161.2493  111.0496 C   0  0  0  0  0  0  0  0  0  0  0  0
  172.8757  163.7522  110.7900 C   0  0  1  0  0  0  0  0  0  0  0  0
  172.9089  163.6567  109.3460 C   0  0  0  0  0  0  0  0  0  0  0  0
  173.5452  162.6353  108.9118 O   0  0  0  0  0  0  0  0  0  0  0  0
  172.3670  164.5060  108.2891 C   0  0  0  0  0  0  0  0  0  0  0  0
  172.8639  165.7731  108.0136 N   0  0  0  0  0  0  0  0  0  0  0  0
  173.2074  166.6471  109.0597 C   0  0  0  0  0  0  0  0  0  0  0  0
  173.5917  168.0402  108.5593 C   0  0  0  0  0  0  0  0  0  0  0  0
  172.5210  168.6020  107.7690 N   0  0  0  0  0  0  0  0  0  0  0  0
  171.7978  167.6546  106.9157 C   0  0  0  0  0  0  0  0  0  0  0  0
  172.5439  166.3655  106.7527 C   0  0  0  0  0  0  0  0  0  0  0  0
  172.1401  169.9586  107.7640 C   0  0  0  0  0  0  0  0  0  0  0  0
  170.9908  170.3436  108.4177 C   0  0  0  0  0  0  0  0  0  0  0  0
  170.5825  171.6729  108.4225 C   0  0  0  0  0  0  0  0  0  0  0  0
  171.3486  172.5503  107.7701 N   0  0  0  0  0  0  0  0  0  0  0  0
  172.4836  172.2183  107.1151 C   0  0  0  0  0  0  0  0  0  0  0  0
  172.8347  170.9183  107.1413 N   0  0  0  0  0  0  0  0  0  0  0  0
  173.2535  173.1960  106.4335 N   0  0  0  0  0  0  0  0  0  0  0  0
  174.1486  172.9104  105.3358 C   0  0  0  0  0  0  0  0  0  0  0  0
  174.9791  174.1433  105.1269 C   0  0  0  0  0  0  0  0  0  0  0  0
  174.5241  175.1569  106.1496 C   0  0  0  0  0  0  0  0  0  0  0  0
  173.2462  174.6024  106.7483 C   0  0  0  0  0  0  0  0  0  0  0  0
  169.4008  172.0849  109.0941 N   0  0  0  0  0  0  0  0  0  0  0  0
  168.1475  171.3908  109.2390 C   0  0  0  0  0  0  0  0  0  0  0  0
  167.8763  171.5776  110.7381 C   0  0  0  0  0  0  0  0  0  0  0  0
  168.5851  172.8808  111.0868 C   0  0  0  0  0  0  0  0  0  0  0  0
  169.2395  173.3451  109.7903 C   0  0  0  0  0  0  0  0  0  0  0  0
  2  1  1  1
  2  3  1  0
  4  3  1  6
  4  5  1  0
  5  6  1  1
  6  7  1  0
  7  8  1  0
  8  9  2  0
  9 10  1  0
 10 11  2  0
 10 12  1  0
 12 13  2  0
 13 14  1  0
 14 15  1  1
 14 16  1  0
 16 17  2  0
 17 18  1  0
 18 19  1  0
 19 20  1  6
 19 21  1  0
 21 22  1  6
 22 23  2  0
 22 24  1  0
 24 25  1  0
 25 26  1  0
 26 27  1  0
 27 28  1  0
 28 29  1  0
 29 30  1  0
 28 31  1  0
 31 32  2  0
 32 33  1  0
 33 34  2  0
 34 35  1  0
 35 36  2  0
 35 37  1  0
 37 38  1  0
 38 39  1  0
 39 40  1  0
 40 41  1  0
 33 42  1  0
 42 43  1  0
 43 44  1  0
 44 45  1  0
 45 46  1  0
 21  2  1  0
 30 25  1  0
 36 31  1  0
 41 37  1  0
 46 42  1  0
 19  4  1  0
 16  5  1  0
 14  8  1  0
M  END
$$$$
