
     RDKit          3D

 46 53  0  0  0  0  0  0  0  0999 V2000
  191.2321  162.4964  120.8601 C   0  0  0  0  0  0  0  0  0  0  0  0
  191.1296  161.4881  122.0010 C   0  0  2  0  0  0  0  0  0  0  0  0
  192.6080  161.1742  122.3455 C   0  0  0  0  0  0  0  0  0  0  0  0
  192.8004  159.8826  121.5904 C   0  0  1  0  0  0  0  0  0  0  0  0
  194.0506  159.1305  121.9494 C   0  0  2  0  0  0  0  0  0  0  0  0
  195.1205  159.6253  121.0060 C   0  0  0  0  0  0  0  0  0  0  0  0
  196.3898  158.7989  121.0190 C   0  0  0  0  0  0  0  0  0  0  0  0
  196.0492  157.3428  120.9851 C   0  0  0  0  0  0  0  0  0  0  0  0
  196.6489  156.5775  120.1205 C   0  0  0  0  0  0  0  0  0  0  0  0
  196.3750  155.1455  120.0116 C   0  0  0  0  0  0  0  0  0  0  0  0
  196.9867  154.4684  119.1612 O   0  0  0  0  0  0  0  0  0  0  0  0
  195.3905  154.6051  120.9206 C   0  0  0  0  0  0  0  0  0  0  0  0
  194.7844  155.3749  121.7967 C   0  0  0  0  0  0  0  0  0  0  0  0
  195.0479  156.8013  121.9272 C   0  0  1  0  0  0  0  0  0  0  0  0
  195.6420  157.0315  123.3262 C   0  0  0  0  0  0  0  0  0  0  0  0
  193.8470  157.6811  121.7530 C   0  0  0  0  0  0  0  0  0  0  0  0
  192.6942  157.1507  121.4438 C   0  0  0  0  0  0  0  0  0  0  0  0
  191.4344  157.9059  121.2452 C   0  0  0  0  0  0  0  0  0  0  0  0
  191.5243  159.1691  122.0248 C   0  0  1  0  0  0  0  0  0  0  0  0
  191.4596  158.9991  123.5096 C   0  0  0  0  0  0  0  0  0  0  0  0
  190.5155  160.2227  121.5181 C   0  0  1  0  0  0  0  0  0  0  0  0
  189.1569  159.8942  121.8946 C   0  0  0  0  0  0  0  0  0  0  0  0
  188.9357  159.9803  123.1516 O   0  0  0  0  0  0  0  0  0  0  0  0
  187.9936  159.4726  121.1194 C   0  0  0  0  0  0  0  0  0  0  0  0
  187.5972  160.1100  119.9510 N   0  0  0  0  0  0  0  0  0  0  0  0
  187.5966  159.4189  118.7269 C   0  0  0  0  0  0  0  0  0  0  0  0
  187.2740  160.3270  117.5394 C   0  0  0  0  0  0  0  0  0  0  0  0
  188.2006  161.4340  117.4887 N   0  0  0  0  0  0  0  0  0  0  0  0
  188.6031  161.9845  118.7862 C   0  0  0  0  0  0  0  0  0  0  0  0
  187.6962  161.5347  119.8909 C   0  0  0  0  0  0  0  0  0  0  0  0
  188.7243  162.0019  116.3104 C   0  0  0  0  0  0  0  0  0  0  0  0
  188.7283  161.2667  115.1459 C   0  0  0  0  0  0  0  0  0  0  0  0
  189.2475  161.7950  113.9689 C   0  0  0  0  0  0  0  0  0  0  0  0
  189.7373  163.0360  114.0195 N   0  0  0  0  0  0  0  0  0  0  0  0
  189.7544  163.7940  115.1387 C   0  0  0  0  0  0  0  0  0  0  0  0
  189.2396  163.2357  116.2509 N   0  0  0  0  0  0  0  0  0  0  0  0
  190.2950  165.1058  115.1316 N   0  0  0  0  0  0  0  0  0  0  0  0
  190.3629  165.9669  116.2899 C   0  0  0  0  0  0  0  0  0  0  0  0
  190.7010  167.3397  115.7853 C   0  0  0  0  0  0  0  0  0  0  0  0
  190.8290  167.2358  114.2842 C   0  0  0  0  0  0  0  0  0  0  0  0
  190.8450  165.7533  113.9673 C   0  0  0  0  0  0  0  0  0  0  0  0
  189.2564  161.0494  112.7602 N   0  0  0  0  0  0  0  0  0  0  0  0
  189.7690  161.4195  111.4664 C   0  0  0  0  0  0  0  0  0  0  0  0
  190.5585  160.1588  111.0881 C   0  0  0  0  0  0  0  0  0  0  0  0
  189.8466  159.0348  111.8312 C   0  0  0  0  0  0  0  0  0  0  0  0
  188.7222  159.7114  112.6076 C   0  0  0  0  0  0  0  0  0  0  0  0
  2  1  1  6
  2  3  1  0
  4  3  1  1
  4  5  1  0
  5  6  1  6
  6  7  1  0
  7  8  1  0
  8  9  2  0
  9 10  1  0
 10 11  2  0
 10 12  1  0
 12 13  2  0
 13 14  1  0
 14 15  1  1
 14 16  1  0
 16 17  2  0
 17 18  1  0
 18 19  1  0
 19 20  1  1
 19 21  1  0
 21 22  1  1
 22 23  2  0
 22 24  1  0
 24 25  1  0
 25 26  1  0
 26 27  1  0
 27 28  1  0
 28 29  1  0
 29 30  1  0
 28 31  1  0
 31 32  2  0
 32 33  1  0
 33 34  2  0
 34 35  1  0
 35 36  2  0
 35 37  1  0
 37 38  1  0
 38 39  1  0
 39 40  1  0
 40 41  1  0
 33 42  1  0
 42 43  1  0
 43 44  1  0
 44 45  1  0
 45 46  1  0
 21  2  1  0
 30 25  1  0
 36 31  1  0
 41 37  1  0
 46 42  1  0
 19  4  1  0
 16  5  1  0
 14  8  1  0
M  END
$$$$
