
     RDKit          3D

 46 53  0  0  0  0  0  0  0  0999 V2000
  193.6646  159.9594  129.4033 C   0  0  0  0  0  0  0  0  0  0  0  0
  193.5645  160.8702  130.6237 C   0  0  2  0  0  0  0  0  0  0  0  0
  193.0105  159.9379  131.7313 C   0  0  0  0  0  0  0  0  0  0  0  0
  191.5458  160.2966  131.6886 C   0  0  1  0  0  0  0  0  0  0  0  0
  190.7450  159.7887  132.8540 C   0  0  2  0  0  0  0  0  0  0  0  0
  190.2331  158.4279  132.4468 C   0  0  0  0  0  0  0  0  0  0  0  0
  189.1781  157.8593  133.3731 C   0  0  0  0  0  0  0  0  0  0  0  0
  188.1697  158.9135  133.7035 C   0  0  0  0  0  0  0  0  0  0  0  0
  186.9050  158.6327  133.5830 C   0  0  0  0  0  0  0  0  0  0  0  0
  185.8506  159.6019  133.8777 C   0  0  0  0  0  0  0  0  0  0  0  0
  184.6567  159.2671  133.7425 O   0  0  0  0  0  0  0  0  0  0  0  0
  186.2797  160.9102  134.3153 C   0  0  0  0  0  0  0  0  0  0  0  0
  187.5564  161.1965  134.4403 C   0  0  0  0  0  0  0  0  0  0  0  0
  188.6219  160.2442  134.1598 C   0  0  1  0  0  0  0  0  0  0  0  0
  189.3670  159.9881  135.4798 C   0  0  0  0  0  0  0  0  0  0  0  0
  189.6050  160.6890  133.1195 C   0  0  0  0  0  0  0  0  0  0  0  0
  189.4258  161.8261  132.5023 C   0  0  0  0  0  0  0  0  0  0  0  0
  190.3209  162.3797  131.4587 C   0  0  0  0  0  0  0  0  0  0  0  0
  191.6809  161.8157  131.6687 C   0  0  1  0  0  0  0  0  0  0  0  0
  192.3948  162.3269  132.8797 C   0  0  0  0  0  0  0  0  0  0  0  0
  192.5464  161.9299  130.3950 C   0  0  1  0  0  0  0  0  0  0  0  0
  192.9700  163.2923  130.1505 C   0  0  0  0  0  0  0  0  0  0  0  0
  194.1111  163.3822  129.5793 O   0  0  0  0  0  0  0  0  0  0  0  0
  192.3528  164.5835  130.4397 C   0  0  0  0  0  0  0  0  0  0  0  0
  193.0827  165.6902  130.8533 N   0  0  0  0  0  0  0  0  0  0  0  0
  193.4994  166.6578  129.9225 C   0  0  0  0  0  0  0  0  0  0  0  0
  194.4129  167.7155  130.5435 C   0  0  0  0  0  0  0  0  0  0  0  0
  195.5585  167.0885  131.1606 N   0  0  0  0  0  0  0  0  0  0  0  0
  195.2981  165.8121  131.8326 C   0  0  0  0  0  0  0  0  0  0  0  0
  193.8346  165.5900  132.0648 C   0  0  0  0  0  0  0  0  0  0  0  0
  196.8681  167.6087  131.1600 C   0  0  0  0  0  0  0  0  0  0  0  0
  197.1476  168.7432  130.4310 C   0  0  0  0  0  0  0  0  0  0  0  0
  198.4321  169.2753  130.4017 C   0  0  0  0  0  0  0  0  0  0  0  0
  199.3728  168.6417  131.1060 N   0  0  0  0  0  0  0  0  0  0  0  0
  199.1447  167.5264  131.8351 C   0  0  0  0  0  0  0  0  0  0  0  0
  197.8841  167.0522  131.8301 N   0  0  0  0  0  0  0  0  0  0  0  0
  200.1880  166.8933  132.5588 N   0  0  0  0  0  0  0  0  0  0  0  0
  200.0099  165.7322  133.4000 C   0  0  0  0  0  0  0  0  0  0  0  0
  201.2685  165.5882  134.2054 C   0  0  0  0  0  0  0  0  0  0  0  0
  202.1849  166.7150  133.7920 C   0  0  0  0  0  0  0  0  0  0  0  0
  201.5625  167.3269  132.5522 C   0  0  0  0  0  0  0  0  0  0  0  0
  198.7347  170.4457  129.6562 N   0  0  0  0  0  0  0  0  0  0  0  0
  199.9037  171.2846  129.7141 C   0  0  0  0  0  0  0  0  0  0  0  0
  200.2234  171.4516  128.2223 C   0  0  0  0  0  0  0  0  0  0  0  0
  198.8730  171.3040  127.5316 C   0  0  0  0  0  0  0  0  0  0  0  0
  197.8733  171.0339  128.6508 C   0  0  0  0  0  0  0  0  0  0  0  0
  2  1  1  6
  2  3  1  0
  4  3  1  1
  4  5  1  0
  5  6  1  6
  6  7  1  0
  7  8  1  0
  8  9  2  0
  9 10  1  0
 10 11  2  0
 10 12  1  0
 12 13  2  0
 13 14  1  0
 14 15  1  1
 14 16  1  0
 16 17  2  0
 17 18  1  0
 18 19  1  0
 19 20  1  1
 19 21  1  0
 21 22  1  1
 22 23  2  0
 22 24  1  0
 24 25  1  0
 25 26  1  0
 26 27  1  0
 27 28  1  0
 28 29  1  0
 29 30  1  0
 28 31  1  0
 31 32  2  0
 32 33  1  0
 33 34  2  0
 34 35  1  0
 35 36  2  0
 35 37  1  0
 37 38  1  0
 38 39  1  0
 39 40  1  0
 40 41  1  0
 33 42  1  0
 42 43  1  0
 43 44  1  0
 44 45  1  0
 45 46  1  0
 21  2  1  0
 30 25  1  0
 36 31  1  0
 41 37  1  0
 46 42  1  0
 19  4  1  0
 16  5  1  0
 14  8  1  0
M  END
$$$$
