
     RDKit          3D

 46 53  0  0  0  0  0  0  0  0999 V2000
  131.1429  143.8206  133.9589 C   0  0  0  0  0  0  0  0  0  0  0  0
  129.7299  144.0480  133.4290 C   0  0  2  0  0  0  0  0  0  0  0  0
  129.7293  145.5430  133.0192 C   0  0  0  0  0  0  0  0  0  0  0  0
  129.0768  146.1621  134.2302 C   0  0  1  0  0  0  0  0  0  0  0  0
  128.6404  147.5876  134.0432 C   0  0  2  0  0  0  0  0  0  0  0  0
  129.8111  148.4413  134.4681 C   0  0  0  0  0  0  0  0  0  0  0  0
  129.4848  149.9131  134.6147 C   0  0  0  0  0  0  0  0  0  0  0  0
  128.1964  150.0771  135.3568 C   0  0  0  0  0  0  0  0  0  0  0  0
  128.1497  150.9061  136.3584 C   0  0  0  0  0  0  0  0  0  0  0  0
  126.9364  151.1257  137.1442 C   0  0  0  0  0  0  0  0  0  0  0  0
  126.9595  151.9365  138.0917 O   0  0  0  0  0  0  0  0  0  0  0  0
  125.7692  150.3681  136.7557 C   0  0  0  0  0  0  0  0  0  0  0  0
  125.8123  149.5314  135.7430 C   0  0  0  0  0  0  0  0  0  0  0  0
  127.0075  149.3037  134.9425 C   0  0  1  0  0  0  0  0  0  0  0  0
  126.6973  149.7729  133.5119 C   0  0  0  0  0  0  0  0  0  0  0  0
  127.4751  147.8802  134.9017 C   0  0  0  0  0  0  0  0  0  0  0  0
  126.8526  146.9729  135.6054 C   0  0  0  0  0  0  0  0  0  0  0  0
  127.2117  145.5357  135.6520 C   0  0  0  0  0  0  0  0  0  0  0  0
  127.9101  145.1919  134.3848 C   0  0  1  0  0  0  0  0  0  0  0  0
  127.0377  145.1724  133.1698 C   0  0  0  0  0  0  0  0  0  0  0  0
  128.7366  143.8951  134.5251 C   0  0  1  0  0  0  0  0  0  0  0  0
  127.8930  142.7197  134.5713 C   0  0  0  0  0  0  0  0  0  0  0  0
  126.8027  142.8420  133.9136 O   0  0  0  0  0  0  0  0  0  0  0  0
  128.0401  141.4261  135.2323 C   0  0  0  0  0  0  0  0  0  0  0  0
  128.7660  140.3781  134.6814 N   0  0  0  0  0  0  0  0  0  0  0  0
  130.0937  140.1439  135.0797 C   0  0  0  0  0  0  0  0  0  0  0  0
  130.7690  139.0459  134.2567 C   0  0  0  0  0  0  0  0  0  0  0  0
  130.7183  139.3708  132.8502 N   0  0  0  0  0  0  0  0  0  0  0  0
  129.4872  140.0222  132.3934 C   0  0  0  0  0  0  0  0  0  0  0  0
  128.3798  139.8912  133.3942 C   0  0  0  0  0  0  0  0  0  0  0  0
  131.7421  139.1088  131.9183 C   0  0  0  0  0  0  0  0  0  0  0  0
  132.9632  138.6517  132.3617 C   0  0  0  0  0  0  0  0  0  0  0  0
  133.9971  138.3937  131.4682 C   0  0  0  0  0  0  0  0  0  0  0  0
  133.7537  138.6076  130.1730 N   0  0  0  0  0  0  0  0  0  0  0  0
  132.5721  139.0552  129.6926 C   0  0  0  0  0  0  0  0  0  0  0  0
  131.6042  139.2893  130.5994 N   0  0  0  0  0  0  0  0  0  0  0  0
  132.3754  139.2696  128.3039 N   0  0  0  0  0  0  0  0  0  0  0  0
  131.1398  139.7347  127.7168 C   0  0  0  0  0  0  0  0  0  0  0  0
  131.2611  139.5219  126.2358 C   0  0  0  0  0  0  0  0  0  0  0  0
  132.6222  138.9159  125.9900 C   0  0  0  0  0  0  0  0  0  0  0  0
  133.3814  139.0490  127.2957 C   0  0  0  0  0  0  0  0  0  0  0  0
  135.2608  137.9202  131.9108 N   0  0  0  0  0  0  0  0  0  0  0  0
  136.4218  137.5653  131.1363 C   0  0  0  0  0  0  0  0  0  0  0  0
  137.5303  138.2862  131.9156 C   0  0  0  0  0  0  0  0  0  0  0  0
  137.0020  138.3512  133.3435 C   0  0  0  0  0  0  0  0  0  0  0  0
  135.6245  137.6989  133.2955 C   0  0  0  0  0  0  0  0  0  0  0  0
  2  1  1  1
  2  3  1  0
  4  3  1  6
  4  5  1  0
  5  6  1  1
  6  7  1  0
  7  8  1  0
  8  9  2  0
  9 10  1  0
 10 11  2  0
 10 12  1  0
 12 13  2  0
 13 14  1  0
 14 15  1  6
 14 16  1  0
 16 17  2  0
 17 18  1  0
 18 19  1  0
 19 20  1  6
 19 21  1  0
 21 22  1  6
 22 23  2  0
 22 24  1  0
 24 25  1  0
 25 26  1  0
 26 27  1  0
 27 28  1  0
 28 29  1  0
 29 30  1  0
 28 31  1  0
 31 32  2  0
 32 33  1  0
 33 34  2  0
 34 35  1  0
 35 36  2  0
 35 37  1  0
 37 38  1  0
 38 39  1  0
 39 40  1  0
 40 41  1  0
 33 42  1  0
 42 43  1  0
 43 44  1  0
 44 45  1  0
 45 46  1  0
 21  2  1  0
 30 25  1  0
 36 31  1  0
 41 37  1  0
 46 42  1  0
 19  4  1  0
 16  5  1  0
 14  8  1  0
M  END
$$$$
