
     RDKit          3D

 46 53  0  0  0  0  0  0  0  0999 V2000
  169.6477  148.0489  124.8667 C   0  0  0  0  0  0  0  0  0  0  0  0
  168.1267  148.0499  124.7420 C   0  0  2  0  0  0  0  0  0  0  0  0
  167.8184  149.3963  124.0385 C   0  0  0  0  0  0  0  0  0  0  0  0
  167.4448  150.2499  125.2249 C   0  0  1  0  0  0  0  0  0  0  0  0
  166.7909  151.5558  124.8724 C   0  0  2  0  0  0  0  0  0  0  0  0
  167.9104  152.5599  124.7378 C   0  0  0  0  0  0  0  0  0  0  0  0
  167.4461  153.9992  124.6533 C   0  0  0  0  0  0  0  0  0  0  0  0
  166.3986  154.2575  125.6894 C   0  0  0  0  0  0  0  0  0  0  0  0
  166.5180  155.3015  126.4566 C   0  0  0  0  0  0  0  0  0  0  0  0
  165.5466  155.6289  127.4992 C   0  0  0  0  0  0  0  0  0  0  0  0
  165.7202  156.6465  128.1994 O   0  0  0  0  0  0  0  0  0  0  0  0
  164.4276  154.7268  127.6459 C   0  0  0  0  0  0  0  0  0  0  0  0
  164.3027  153.6726  126.8710 C   0  0  0  0  0  0  0  0  0  0  0  0
  165.2540  153.3325  125.8220 C   0  0  1  0  0  0  0  0  0  0  0  0
  164.5071  153.4173  124.4810 C   0  0  0  0  0  0  0  0  0  0  0  0
  165.8754  151.9748  125.9527 C   0  0  0  0  0  0  0  0  0  0  0  0
  165.5927  151.2293  126.9873 C   0  0  0  0  0  0  0  0  0  0  0  0
  166.1363  149.8728  127.2344 C   0  0  0  0  0  0  0  0  0  0  0  0
  166.5021  149.2749  125.9227 C   0  0  1  0  0  0  0  0  0  0  0  0
  165.3423  148.9038  125.0540 C   0  0  0  0  0  0  0  0  0  0  0  0
  167.4984  148.1068  126.0887 C   0  0  1  0  0  0  0  0  0  0  0  0
  166.8611  146.9271  126.6344 C   0  0  0  0  0  0  0  0  0  0  0  0
  165.5901  146.9148  126.4898 O   0  0  0  0  0  0  0  0  0  0  0  0
  167.3863  145.7545  127.3280 C   0  0  0  0  0  0  0  0  0  0  0  0
  168.7281  145.3983  127.2929 N   0  0  0  0  0  0  0  0  0  0  0  0
  169.7033  146.2370  127.8602 C   0  0  0  0  0  0  0  0  0  0  0  0
  171.1273  145.7482  127.5910 C   0  0  0  0  0  0  0  0  0  0  0  0
  171.3500  145.6111  126.1704 N   0  0  0  0  0  0  0  0  0  0  0  0
  170.2104  145.1132  125.3946 C   0  0  0  0  0  0  0  0  0  0  0  0
  169.1623  144.4980  126.2710 C   0  0  0  0  0  0  0  0  0  0  0  0
  172.5540  145.9134  125.5038 C   0  0  0  0  0  0  0  0  0  0  0  0
  172.5892  145.9022  124.1271 C   0  0  0  0  0  0  0  0  0  0  0  0
  173.7644  146.1860  123.4399 C   0  0  0  0  0  0  0  0  0  0  0  0
  174.8467  146.4669  124.1693 N   0  0  0  0  0  0  0  0  0  0  0  0
  174.8591  146.4894  125.5209 C   0  0  0  0  0  0  0  0  0  0  0  0
  173.6954  146.2077  126.1377 N   0  0  0  0  0  0  0  0  0  0  0  0
  176.0438  146.7892  126.2418 N   0  0  0  0  0  0  0  0  0  0  0  0
  177.2965  147.1704  125.6310 C   0  0  0  0  0  0  0  0  0  0  0  0
  178.3416  147.0858  126.7053 C   0  0  0  0  0  0  0  0  0  0  0  0
  177.6391  146.6417  127.9662 C   0  0  0  0  0  0  0  0  0  0  0  0
  176.1545  146.7501  127.6783 C   0  0  0  0  0  0  0  0  0  0  0  0
  173.8151  146.1803  122.0206 N   0  0  0  0  0  0  0  0  0  0  0  0
  173.0848  145.3623  121.0873 C   0  0  0  0  0  0  0  0  0  0  0  0
  172.6109  146.4158  120.0767 C   0  0  0  0  0  0  0  0  0  0  0  0
  173.6663  147.5122  120.1568 C   0  0  0  0  0  0  0  0  0  0  0  0
  174.6565  147.0442  121.2177 C   0  0  0  0  0  0  0  0  0  0  0  0
  2  1  1  1
  2  3  1  0
  4  3  1  6
  4  5  1  0
  5  6  1  1
  6  7  1  0
  7  8  1  0
  8  9  2  0
  9 10  1  0
 10 11  2  0
 10 12  1  0
 12 13  2  0
 13 14  1  0
 14 15  1  6
 14 16  1  0
 16 17  2  0
 17 18  1  0
 18 19  1  0
 19 20  1  6
 19 21  1  0
 21 22  1  6
 22 23  2  0
 22 24  1  0
 24 25  1  0
 25 26  1  0
 26 27  1  0
 27 28  1  0
 28 29  1  0
 29 30  1  0
 28 31  1  0
 31 32  2  0
 32 33  1  0
 33 34  2  0
 34 35  1  0
 35 36  2  0
 35 37  1  0
 37 38  1  0
 38 39  1  0
 39 40  1  0
 40 41  1  0
 33 42  1  0
 42 43  1  0
 43 44  1  0
 44 45  1  0
 45 46  1  0
 21  2  1  0
 30 25  1  0
 36 31  1  0
 41 37  1  0
 46 42  1  0
 19  4  1  0
 16  5  1  0
 14  8  1  0
M  END
$$$$
