
     RDKit          3D

 46 53  0  0  0  0  0  0  0  0999 V2000
  149.1787  166.3464  129.9981 C   0  0  0  0  0  0  0  0  0  0  0  0
  149.1145  167.8477  129.7315 C   0  0  2  0  0  0  0  0  0  0  0  0
  148.8310  168.4555  131.1290 C   0  0  0  0  0  0  0  0  0  0  0  0
  147.3384  168.6575  131.0458 C   0  0  1  0  0  0  0  0  0  0  0  0
  146.7639  169.5190  132.1345 C   0  0  2  0  0  0  0  0  0  0  0  0
  146.3874  168.5795  133.2548 C   0  0  0  0  0  0  0  0  0  0  0  0
  145.5408  169.2142  134.3387 C   0  0  0  0  0  0  0  0  0  0  0  0
  144.4528  170.0333  133.7200 C   0  0  0  0  0  0  0  0  0  0  0  0
  143.2306  169.8710  134.1359 C   0  0  0  0  0  0  0  0  0  0  0  0
  142.1041  170.6229  133.5853 C   0  0  0  0  0  0  0  0  0  0  0  0
  140.9568  170.4196  134.0304 O   0  0  0  0  0  0  0  0  0  0  0  0
  142.4099  171.5710  132.5389 C   0  0  0  0  0  0  0  0  0  0  0  0
  143.6436  171.7391  132.1181 C   0  0  0  0  0  0  0  0  0  0  0  0
  144.7808  171.0067  132.6579 C   0  0  1  0  0  0  0  0  0  0  0  0
  145.7130  172.0326  133.3224 C   0  0  0  0  0  0  0  0  0  0  0  0
  145.5585  170.2191  131.6472 C   0  0  0  0  0  0  0  0  0  0  0  0
  145.1559  170.1813  130.4053 C   0  0  0  0  0  0  0  0  0  0  0  0
  145.8324  169.4439  129.3121 C   0  0  0  0  0  0  0  0  0  0  0  0
  147.2700  169.3062  129.6671 C   0  0  1  0  0  0  0  0  0  0  0  0
  148.0575  170.5767  129.6100 C   0  0  0  0  0  0  0  0  0  0  0  0
  147.9459  168.1696  128.8699 C   0  0  1  0  0  0  0  0  0  0  0  0
  148.1535  168.5318  127.4838 C   0  0  0  0  0  0  0  0  0  0  0  0
  148.2473  169.7927  127.2895 O   0  0  0  0  0  0  0  0  0  0  0  0
  148.2651  167.7380  126.2635 C   0  0  0  0  0  0  0  0  0  0  0  0
  149.2773  166.8092  126.0603 N   0  0  0  0  0  0  0  0  0  0  0  0
  150.6264  167.1945  126.1483 C   0  0  0  0  0  0  0  0  0  0  0  0
  151.5853  166.0725  125.7479 C   0  0  0  0  0  0  0  0  0  0  0  0
  151.2836  165.6074  124.4140 N   0  0  0  0  0  0  0  0  0  0  0  0
  149.8606  165.5589  124.0657 C   0  0  0  0  0  0  0  0  0  0  0  0
  148.9841  165.6497  125.2775 C   0  0  0  0  0  0  0  0  0  0  0  0
  152.2380  165.2082  123.4573 C   0  0  0  0  0  0  0  0  0  0  0  0
  151.8198  164.8024  122.2095 C   0  0  0  0  0  0  0  0  0  0  0  0
  152.7362  164.3928  121.2469 C   0  0  0  0  0  0  0  0  0  0  0  0
  154.0276  164.4108  121.5852 N   0  0  0  0  0  0  0  0  0  0  0  0
  154.4836  164.8006  122.7966 C   0  0  0  0  0  0  0  0  0  0  0  0
  153.5554  165.1880  123.6923 N   0  0  0  0  0  0  0  0  0  0  0  0
  155.8697  164.7919  123.0995 N   0  0  0  0  0  0  0  0  0  0  0  0
  156.4264  165.1455  124.3851 C   0  0  0  0  0  0  0  0  0  0  0  0
  157.9052  165.3064  124.1831 C   0  0  0  0  0  0  0  0  0  0  0  0
  158.1814  165.0276  122.7249 C   0  0  0  0  0  0  0  0  0  0  0  0
  156.9051  164.4319  122.1638 C   0  0  0  0  0  0  0  0  0  0  0  0
  152.3198  163.9738  119.9554 N   0  0  0  0  0  0  0  0  0  0  0  0
  153.1175  163.5327  118.8407 C   0  0  0  0  0  0  0  0  0  0  0  0
  152.3531  162.2740  118.4082 C   0  0  0  0  0  0  0  0  0  0  0  0
  150.9154  162.5444  118.8354 C   0  0  0  0  0  0  0  0  0  0  0  0
  150.9434  163.9128  119.5074 C   0  0  0  0  0  0  0  0  0  0  0  0
  2  1  1  1
  2  3  1  0
  4  3  1  1
  4  5  1  0
  5  6  1  1
  6  7  1  0
  7  8  1  0
  8  9  2  0
  9 10  1  0
 10 11  2  0
 10 12  1  0
 12 13  2  0
 13 14  1  0
 14 15  1  1
 14 16  1  0
 16 17  2  0
 17 18  1  0
 18 19  1  0
 19 20  1  1
 19 21  1  0
 21 22  1  6
 22 23  2  0
 22 24  1  0
 24 25  1  0
 25 26  1  0
 26 27  1  0
 27 28  1  0
 28 29  1  0
 29 30  1  0
 28 31  1  0
 31 32  2  0
 32 33  1  0
 33 34  2  0
 34 35  1  0
 35 36  2  0
 35 37  1  0
 37 38  1  0
 38 39  1  0
 39 40  1  0
 40 41  1  0
 33 42  1  0
 42 43  1  0
 43 44  1  0
 44 45  1  0
 45 46  1  0
 21  2  1  0
 30 25  1  0
 36 31  1  0
 41 37  1  0
 46 42  1  0
 19  4  1  0
 16  5  1  0
 14  8  1  0
M  END
$$$$
