
     RDKit          3D

 46 53  0  0  0  0  0  0  0  0999 V2000
  168.4428  150.8109  124.3452 C   0  0  0  0  0  0  0  0  0  0  0  0
  168.6972  150.4752  125.8120 C   0  0  2  0  0  0  0  0  0  0  0  0
  169.9148  149.5172  125.7621 C   0  0  0  0  0  0  0  0  0  0  0  0
  169.2211  148.1815  125.8638 C   0  0  1  0  0  0  0  0  0  0  0  0
  170.1354  147.0239  126.1492 C   0  0  2  0  0  0  0  0  0  0  0  0
  170.5644  146.4897  124.8039 C   0  0  0  0  0  0  0  0  0  0  0  0
  171.2723  145.1520  124.8645 C   0  0  0  0  0  0  0  0  0  0  0  0
  170.5341  144.2268  125.7792 C   0  0  0  0  0  0  0  0  0  0  0  0
  170.2531  143.0259  125.3648 C   0  0  0  0  0  0  0  0  0  0  0  0
  169.5303  142.0570  126.1873 C   0  0  0  0  0  0  0  0  0  0  0  0
  169.2944  140.9210  125.7294 O   0  0  0  0  0  0  0  0  0  0  0  0
  169.1320  142.4974  127.5044 C   0  0  0  0  0  0  0  0  0  0  0  0
  169.4162  143.7091  127.9270 C   0  0  0  0  0  0  0  0  0  0  0  0
  170.1416  144.6866  127.1274 C   0  0  1  0  0  0  0  0  0  0  0  0
  171.4630  144.9837  127.8547 C   0  0  0  0  0  0  0  0  0  0  0  0
  169.4105  145.9737  126.8924 C   0  0  0  0  0  0  0  0  0  0  0  0
  168.1927  146.1189  127.3416 C   0  0  0  0  0  0  0  0  0  0  0  0
  167.3636  147.3366  127.1784 C   0  0  0  0  0  0  0  0  0  0  0  0
  168.2762  148.4998  127.0181 C   0  0  1  0  0  0  0  0  0  0  0  0
  169.0206  148.8917  128.2549 C   0  0  0  0  0  0  0  0  0  0  0  0
  167.5559  149.7022  126.3702 C   0  0  1  0  0  0  0  0  0  0  0  0
  166.6372  150.3403  127.2892 C   0  0  0  0  0  0  0  0  0  0  0  0
  166.7734  149.9577  128.5022 O   0  0  0  0  0  0  0  0  0  0  0  0
  165.5780  151.3269  127.0982 C   0  0  0  0  0  0  0  0  0  0  0  0
  165.8267  152.6240  126.6690 N   0  0  0  0  0  0  0  0  0  0  0  0
  166.6883  153.4628  127.3972 C   0  0  0  0  0  0  0  0  0  0  0  0
  166.7172  154.8913  126.8519 C   0  0  0  0  0  0  0  0  0  0  0  0
  165.3833  155.4450  126.8259 N   0  0  0  0  0  0  0  0  0  0  0  0
  164.3147  154.5092  126.4644 C   0  0  0  0  0  0  0  0  0  0  0  0
  164.8533  153.2595  125.8373 C   0  0  0  0  0  0  0  0  0  0  0  0
  165.0537  156.7842  127.1146 C   0  0  0  0  0  0  0  0  0  0  0  0
  166.0529  157.6746  127.4393 C   0  0  0  0  0  0  0  0  0  0  0  0
  165.7591  159.0003  127.7394 C   0  0  0  0  0  0  0  0  0  0  0  0
  164.4759  159.3666  127.6987 N   0  0  0  0  0  0  0  0  0  0  0  0
  163.4628  158.5281  127.3857 C   0  0  0  0  0  0  0  0  0  0  0  0
  163.8011  157.2554  127.1032 N   0  0  0  0  0  0  0  0  0  0  0  0
  162.1163  158.9750  127.3653 N   0  0  0  0  0  0  0  0  0  0  0  0
  160.9972  158.1746  126.9244 C   0  0  0  0  0  0  0  0  0  0  0  0
  159.8346  159.1113  126.7674 C   0  0  0  0  0  0  0  0  0  0  0  0
  160.3283  160.4890  127.1396 C   0  0  0  0  0  0  0  0  0  0  0  0
  161.6880  160.2875  127.7793 C   0  0  0  0  0  0  0  0  0  0  0  0
  166.7793  159.9301  128.0737 N   0  0  0  0  0  0  0  0  0  0  0  0
  168.2009  159.7244  128.1734 C   0  0  0  0  0  0  0  0  0  0  0  0
  168.7314  160.9339  127.3914 C   0  0  0  0  0  0  0  0  0  0  0  0
  167.6473  161.9918  127.5583 C   0  0  0  0  0  0  0  0  0  0  0  0
  166.5569  161.3262  128.3907 C   0  0  0  0  0  0  0  0  0  0  0  0
  2  1  1  6
  2  3  1  0
  4  3  1  1
  4  5  1  0
  5  6  1  6
  6  7  1  0
  7  8  1  0
  8  9  2  0
  9 10  1  0
 10 11  2  0
 10 12  1  0
 12 13  2  0
 13 14  1  0
 14 15  1  1
 14 16  1  0
 16 17  2  0
 17 18  1  0
 18 19  1  0
 19 20  1  1
 19 21  1  0
 21 22  1  1
 22 23  2  0
 22 24  1  0
 24 25  1  0
 25 26  1  0
 26 27  1  0
 27 28  1  0
 28 29  1  0
 29 30  1  0
 28 31  1  0
 31 32  2  0
 32 33  1  0
 33 34  2  0
 34 35  1  0
 35 36  2  0
 35 37  1  0
 37 38  1  0
 38 39  1  0
 39 40  1  0
 40 41  1  0
 33 42  1  0
 42 43  1  0
 43 44  1  0
 44 45  1  0
 45 46  1  0
 21  2  1  0
 30 25  1  0
 36 31  1  0
 41 37  1  0
 46 42  1  0
 19  4  1  0
 16  5  1  0
 14  8  1  0
M  END
$$$$
