
     RDKit          3D

 46 53  0  0  0  0  0  0  0  0999 V2000
  185.7761  160.3411  136.3070 C   0  0  0  0  0  0  0  0  0  0  0  0
  186.0045  161.8306  136.5488 C   0  0  2  0  0  0  0  0  0  0  0  0
  187.3512  161.8744  137.3150 C   0  0  0  0  0  0  0  0  0  0  0  0
  186.8584  162.0020  138.7350 C   0  0  1  0  0  0  0  0  0  0  0  0
  187.9185  162.3758  139.7320 C   0  0  2  0  0  0  0  0  0  0  0  0
  188.4878  161.0742  140.2431 C   0  0  0  0  0  0  0  0  0  0  0  0
  189.3818  161.2222  141.4569 C   0  0  0  0  0  0  0  0  0  0  0  0
  188.7441  162.1420  142.4492 C   0  0  0  0  0  0  0  0  0  0  0  0
  188.6646  161.7668  143.6925 C   0  0  0  0  0  0  0  0  0  0  0  0
  188.0531  162.5972  144.7290 C   0  0  0  0  0  0  0  0  0  0  0  0
  188.0107  162.1778  145.9030 O   0  0  0  0  0  0  0  0  0  0  0  0
  187.5294  163.8759  144.3070 C   0  0  0  0  0  0  0  0  0  0  0  0
  187.6101  164.2589  143.0523 C   0  0  0  0  0  0  0  0  0  0  0  0
  188.2218  163.4512  142.0061 C   0  0  1  0  0  0  0  0  0  0  0  0
  189.4471  164.2223  141.4892 C   0  0  0  0  0  0  0  0  0  0  0  0
  187.3209  163.1303  140.8519 C   0  0  0  0  0  0  0  0  0  0  0  0
  186.0743  163.5192  140.8749 C   0  0  0  0  0  0  0  0  0  0  0  0
  185.0834  163.2687  139.8015 C   0  0  0  0  0  0  0  0  0  0  0  0
  185.8209  163.0994  138.5212 C   0  0  1  0  0  0  0  0  0  0  0  0
  186.4371  164.3499  137.9789 C   0  0  0  0  0  0  0  0  0  0  0  0
  184.9637  162.3705  137.4637 C   0  0  1  0  0  0  0  0  0  0  0  0
  183.9165  163.2207  136.9383 C   0  0  0  0  0  0  0  0  0  0  0  0
  183.7679  164.3143  137.5851 O   0  0  0  0  0  0  0  0  0  0  0  0
  182.9896  163.0668  135.8207 C   0  0  0  0  0  0  0  0  0  0  0  0
  182.2634  161.9037  135.6004 N   0  0  0  0  0  0  0  0  0  0  0  0
  181.6557  161.6679  134.3549 C   0  0  0  0  0  0  0  0  0  0  0  0
  180.7819  160.4128  134.3557 C   0  0  0  0  0  0  0  0  0  0  0  0
  179.7803  160.4998  135.3929 N   0  0  0  0  0  0  0  0  0  0  0  0
  180.2142  161.1311  136.6426 C   0  0  0  0  0  0  0  0  0  0  0  0
  181.7067  161.2297  136.7313 C   0  0  0  0  0  0  0  0  0  0  0  0
  178.4562  160.0304  135.2852 C   0  0  0  0  0  0  0  0  0  0  0  0
  177.4302  160.7577  135.8466 C   0  0  0  0  0  0  0  0  0  0  0  0
  176.1140  160.3160  135.7666 C   0  0  0  0  0  0  0  0  0  0  0  0
  175.8929  159.1654  135.1266 N   0  0  0  0  0  0  0  0  0  0  0  0
  176.8676  158.4187  134.5611 C   0  0  0  0  0  0  0  0  0  0  0  0
  178.1245  158.8909  134.6666 N   0  0  0  0  0  0  0  0  0  0  0  0
  176.5709  157.1994  133.8989 N   0  0  0  0  0  0  0  0  0  0  0  0
  177.5575  156.3498  133.2724 C   0  0  0  0  0  0  0  0  0  0  0  0
  176.8016  155.3574  132.4374 C   0  0  0  0  0  0  0  0  0  0  0  0
  175.3337  155.6673  132.6097 C   0  0  0  0  0  0  0  0  0  0  0  0
  175.2459  156.6493  133.7616 C   0  0  0  0  0  0  0  0  0  0  0  0
  175.0457  161.0565  136.3388 N   0  0  0  0  0  0  0  0  0  0  0  0
  173.6347  160.7691  136.3349 C   0  0  0  0  0  0  0  0  0  0  0  0
  173.2780  161.0129  137.8077 C   0  0  0  0  0  0  0  0  0  0  0  0
  174.3024  162.0395  138.2756 C   0  0  0  0  0  0  0  0  0  0  0  0
  175.1957  162.2997  137.0675 C   0  0  0  0  0  0  0  0  0  0  0  0
  2  1  1  1
  2  3  1  0
  4  3  1  6
  4  5  1  0
  5  6  1  1
  6  7  1  0
  7  8  1  0
  8  9  2  0
  9 10  1  0
 10 11  2  0
 10 12  1  0
 12 13  2  0
 13 14  1  0
 14 15  1  6
 14 16  1  0
 16 17  2  0
 17 18  1  0
 18 19  1  0
 19 20  1  6
 19 21  1  0
 21 22  1  6
 22 23  2  0
 22 24  1  0
 24 25  1  0
 25 26  1  0
 26 27  1  0
 27 28  1  0
 28 29  1  0
 29 30  1  0
 28 31  1  0
 31 32  2  0
 32 33  1  0
 33 34  2  0
 34 35  1  0
 35 36  2  0
 35 37  1  0
 37 38  1  0
 38 39  1  0
 39 40  1  0
 40 41  1  0
 33 42  1  0
 42 43  1  0
 43 44  1  0
 44 45  1  0
 45 46  1  0
 21  2  1  0
 30 25  1  0
 36 31  1  0
 41 37  1  0
 46 42  1  0
 19  4  1  0
 16  5  1  0
 14  8  1  0
M  END
$$$$
