
     RDKit          3D

 46 53  0  0  0  0  0  0  0  0999 V2000
  134.3937  138.6836  132.3785 C   0  0  0  0  0  0  0  0  0  0  0  0
  133.1667  138.0111  131.7692 C   0  0  2  0  0  0  0  0  0  0  0  0
  133.6663  137.5241  130.3850 C   0  0  0  0  0  0  0  0  0  0  0  0
  133.1548  138.6333  129.4996 C   0  0  1  0  0  0  0  0  0  0  0  0
  133.2039  138.3302  128.0289 C   0  0  2  0  0  0  0  0  0  0  0  0
  134.5491  138.8178  127.5472 C   0  0  0  0  0  0  0  0  0  0  0  0
  134.6925  138.8543  126.0397 C   0  0  0  0  0  0  0  0  0  0  0  0
  133.4705  139.4615  125.4272 C   0  0  0  0  0  0  0  0  0  0  0  0
  133.6137  140.4087  124.5467 C   0  0  0  0  0  0  0  0  0  0  0  0
  132.4769  141.0634  123.9010 C   0  0  0  0  0  0  0  0  0  0  0  0
  132.6845  141.9644  123.0638 O   0  0  0  0  0  0  0  0  0  0  0  0
  131.1624  140.6072  124.2898 C   0  0  0  0  0  0  0  0  0  0  0  0
  131.0142  139.6490  125.1772 C   0  0  0  0  0  0  0  0  0  0  0  0
  132.1323  138.9785  125.8263 C   0  0  1  0  0  0  0  0  0  0  0  0
  132.0910  137.5020  125.4003 C   0  0  0  0  0  0  0  0  0  0  0  0
  132.1301  139.0578  127.3230 C   0  0  0  0  0  0  0  0  0  0  0  0
  131.2041  139.7469  127.9343 C   0  0  0  0  0  0  0  0  0  0  0  0
  131.0886  139.9036  129.4036 C   0  0  0  0  0  0  0  0  0  0  0  0
  131.7342  138.7283  130.0466 C   0  0  1  0  0  0  0  0  0  0  0  0
  130.9913  137.4390  129.8931 C   0  0  0  0  0  0  0  0  0  0  0  0
  132.0983  139.0150  131.5196 C   0  0  1  0  0  0  0  0  0  0  0  0
  130.9269  139.0437  132.3695 C   0  0  0  0  0  0  0  0  0  0  0  0
  130.0030  138.2395  132.0005 O   0  0  0  0  0  0  0  0  0  0  0  0
  130.5909  139.8207  133.5592 C   0  0  0  0  0  0  0  0  0  0  0  0
  129.8412  140.9885  133.5078 N   0  0  0  0  0  0  0  0  0  0  0  0
  130.4182  142.2219  133.8574 C   0  0  0  0  0  0  0  0  0  0  0  0
  129.3989  143.3618  133.8811 C   0  0  0  0  0  0  0  0  0  0  0  0
  128.3131  143.0447  134.7794 N   0  0  0  0  0  0  0  0  0  0  0  0
  127.8919  141.6408  134.7950 C   0  0  0  0  0  0  0  0  0  0  0  0
  128.4196  140.8847  133.6139 C   0  0  0  0  0  0  0  0  0  0  0  0
  127.6524  143.9683  135.6135 C   0  0  0  0  0  0  0  0  0  0  0  0
  126.6585  143.5291  136.4596 C   0  0  0  0  0  0  0  0  0  0  0  0
  125.9806  144.4173  137.2876 C   0  0  0  0  0  0  0  0  0  0  0  0
  126.3343  145.7031  137.2249 N   0  0  0  0  0  0  0  0  0  0  0  0
  127.3026  146.1792  136.4105 C   0  0  0  0  0  0  0  0  0  0  0  0
  127.9282  145.2778  135.6294 N   0  0  0  0  0  0  0  0  0  0  0  0
  127.6298  147.5595  136.3838 N   0  0  0  0  0  0  0  0  0  0  0  0
  128.7434  148.1203  135.6538 C   0  0  0  0  0  0  0  0  0  0  0  0
  128.9116  149.5296  136.1429 C   0  0  0  0  0  0  0  0  0  0  0  0
  127.8447  149.7618  137.1862 C   0  0  0  0  0  0  0  0  0  0  0  0
  126.8959  148.5837  137.0837 C   0  0  0  0  0  0  0  0  0  0  0  0
  124.9550  143.9784  138.1666 N   0  0  0  0  0  0  0  0  0  0  0  0
  124.4503  142.6474  138.3834 C   0  0  0  0  0  0  0  0  0  0  0  0
  124.4212  142.5870  139.9168 C   0  0  0  0  0  0  0  0  0  0  0  0
  124.2320  144.0374  140.3446 C   0  0  0  0  0  0  0  0  0  0  0  0
  124.1945  144.8400  139.0486 C   0  0  0  0  0  0  0  0  0  0  0  0
  2  1  1  6
  2  3  1  0
  4  3  1  1
  4  5  1  0
  5  6  1  6
  6  7  1  0
  7  8  1  0
  8  9  2  0
  9 10  1  0
 10 11  2  0
 10 12  1  0
 12 13  2  0
 13 14  1  0
 14 15  1  1
 14 16  1  0
 16 17  2  0
 17 18  1  0
 18 19  1  0
 19 20  1  1
 19 21  1  0
 21 22  1  1
 22 23  2  0
 22 24  1  0
 24 25  1  0
 25 26  1  0
 26 27  1  0
 27 28  1  0
 28 29  1  0
 29 30  1  0
 28 31  1  0
 31 32  2  0
 32 33  1  0
 33 34  2  0
 34 35  1  0
 35 36  2  0
 35 37  1  0
 37 38  1  0
 38 39  1  0
 39 40  1  0
 40 41  1  0
 33 42  1  0
 42 43  1  0
 43 44  1  0
 44 45  1  0
 45 46  1  0
 21  2  1  0
 30 25  1  0
 36 31  1  0
 41 37  1  0
 46 42  1  0
 19  4  1  0
 16  5  1  0
 14  8  1  0
M  END
$$$$
