
     RDKit          3D

 46 53  0  0  0  0  0  0  0  0999 V2000
  130.6649  139.7106  135.2632 C   0  0  0  0  0  0  0  0  0  0  0  0
  131.2005  141.1214  135.0354 C   0  0  2  0  0  0  0  0  0  0  0  0
  130.1365  142.0289  135.7041 C   0  0  0  0  0  0  0  0  0  0  0  0
  129.3266  142.4404  134.4998 C   0  0  1  0  0  0  0  0  0  0  0  0
  128.3765  143.5780  134.7461 C   0  0  2  0  0  0  0  0  0  0  0  0
  127.0734  142.9476  135.1752 C   0  0  0  0  0  0  0  0  0  0  0  0
  125.9019  143.9070  135.2100 C   0  0  0  0  0  0  0  0  0  0  0  0
  125.8958  144.7475  133.9727 C   0  0  0  0  0  0  0  0  0  0  0  0
  124.7899  144.8625  133.2969 C   0  0  0  0  0  0  0  0  0  0  0  0
  124.6925  145.6573  132.0736 C   0  0  0  0  0  0  0  0  0  0  0  0
  123.6007  145.7267  131.4744 O   0  0  0  0  0  0  0  0  0  0  0  0
  125.8989  146.3216  131.6370 C   0  0  0  0  0  0  0  0  0  0  0  0
  127.0171  146.2095  132.3186 C   0  0  0  0  0  0  0  0  0  0  0  0
  127.1341  145.4298  133.5430 C   0  0  1  0  0  0  0  0  0  0  0  0
  127.4724  146.4085  134.6791 C   0  0  0  0  0  0  0  0  0  0  0  0
  128.1702  144.3474  133.5027 C   0  0  0  0  0  0  0  0  0  0  0  0
  128.8371  144.1291  132.4011 C   0  0  0  0  0  0  0  0  0  0  0  0
  129.8848  143.0948  132.2298 C   0  0  0  0  0  0  0  0  0  0  0  0
  130.4742  142.8077  133.5647 C   0  0  1  0  0  0  0  0  0  0  0  0
  131.3222  143.9037  134.1280 C   0  0  0  0  0  0  0  0  0  0  0  0
  131.2009  141.4453  133.5839 C   0  0  1  0  0  0  0  0  0  0  0  0
  132.4528  141.4909  132.8585 C   0  0  0  0  0  0  0  0  0  0  0  0
  132.7913  142.6678  132.4888 O   0  0  0  0  0  0  0  0  0  0  0  0
  133.3978  140.4529  132.4570 C   0  0  0  0  0  0  0  0  0  0  0  0
  133.3921  139.8788  131.1925 N   0  0  0  0  0  0  0  0  0  0  0  0
  132.7130  140.5008  130.1304 C   0  0  0  0  0  0  0  0  0  0  0  0
  132.6963  139.6458  128.8625 C   0  0  0  0  0  0  0  0  0  0  0  0
  132.1163  138.3519  129.1381 N   0  0  0  0  0  0  0  0  0  0  0  0
  132.4428  137.7757  130.4457 C   0  0  0  0  0  0  0  0  0  0  0  0
  133.6050  138.4692  131.0888 C   0  0  0  0  0  0  0  0  0  0  0  0
  131.2851  137.6300  128.2587 C   0  0  0  0  0  0  0  0  0  0  0  0
  130.4246  136.6806  128.7635 C   0  0  0  0  0  0  0  0  0  0  0  0
  129.5990  135.9442  127.9208 C   0  0  0  0  0  0  0  0  0  0  0  0
  129.6784  136.1975  126.6124 N   0  0  0  0  0  0  0  0  0  0  0  0
  130.5073  137.1189  126.0725 C   0  0  0  0  0  0  0  0  0  0  0  0
  131.2853  137.8047  126.9318 N   0  0  0  0  0  0  0  0  0  0  0  0
  130.5515  137.3390  124.6715 N   0  0  0  0  0  0  0  0  0  0  0  0
  129.8627  136.5262  123.6955 C   0  0  0  0  0  0  0  0  0  0  0  0
  130.4216  136.9005  122.3535 C   0  0  0  0  0  0  0  0  0  0  0  0
  131.4622  137.9680  122.5943 C   0  0  0  0  0  0  0  0  0  0  0  0
  131.2915  138.4007  124.0373 C   0  0  0  0  0  0  0  0  0  0  0  0
  128.7052  134.9635  128.4272 N   0  0  0  0  0  0  0  0  0  0  0  0
  127.9144  133.9965  127.7110 C   0  0  0  0  0  0  0  0  0  0  0  0
  128.1985  132.7232  128.5196 C   0  0  0  0  0  0  0  0  0  0  0  0
  128.5089  133.2323  129.9220 C   0  0  0  0  0  0  0  0  0  0  0  0
  128.4160  134.7516  129.8309 C   0  0  0  0  0  0  0  0  0  0  0  0
  2  1  1  6
  2  3  1  0
  4  3  1  1
  4  5  1  0
  5  6  1  6
  6  7  1  0
  7  8  1  0
  8  9  2  0
  9 10  1  0
 10 11  2  0
 10 12  1  0
 12 13  2  0
 13 14  1  0
 14 15  1  1
 14 16  1  0
 16 17  2  0
 17 18  1  0
 18 19  1  0
 19 20  1  1
 19 21  1  0
 21 22  1  1
 22 23  2  0
 22 24  1  0
 24 25  1  0
 25 26  1  0
 26 27  1  0
 27 28  1  0
 28 29  1  0
 29 30  1  0
 28 31  1  0
 31 32  2  0
 32 33  1  0
 33 34  2  0
 34 35  1  0
 35 36  2  0
 35 37  1  0
 37 38  1  0
 38 39  1  0
 39 40  1  0
 40 41  1  0
 33 42  1  0
 42 43  1  0
 43 44  1  0
 44 45  1  0
 45 46  1  0
 21  2  1  0
 30 25  1  0
 36 31  1  0
 41 37  1  0
 46 42  1  0
 19  4  1  0
 16  5  1  0
 14  8  1  0
M  END
$$$$
